*Heading
 10more history output
** Job name: 10xoutput Model name: Job-2
** Generated by: Abaqus/CAE 2024
*Preprint, echo=NO, model=NO, history=NO, contact=NO
**
** PARTS
**
*Part, name=H5-1
*End Part
**  
*Part, name=QUARTER-BATTERY
*Node
      1,           0.,        26.75,   5.07000017
      2,   23.2999992,        26.75,   5.07000017
      3,   23.2999992,        32.75,   5.07000017
      4,           0.,        32.75,   5.07000017
      5,   23.2999992,        26.75,           0.
      6,   23.2999992,        32.75,           0.
      7,           0.,        32.75,           0.
      8,           0.,        26.75,           0.
      9,   29.2999992,        26.75,           0.
     10,   29.2999992,        26.75,   5.07000017
     11,   29.2999992,           0.,   5.07000017
     12,   29.2999992,           0.,           0.
     13,   23.2999992,           0.,   5.07000017
     14,   23.2999992,           0.,           0.
     15,           0.,           0.,   5.07000017
     16,           0.,           0.,           0.
     17,   29.2999992,        32.75,           0.
     18,   29.2999992,        32.75,   5.07000017
     19,   1.22631574,        26.75,   5.07000017
     20,   2.45263147,        26.75,   5.07000017
** ... 13525 like lines cut
*Element, type=C3D8R
    1,   160,  1214,  4586,  1018,     1,    19,   514,    82
    2,  1214,  1215,  4587,  4586,    19,    20,   515,   514
    3,  1215,  1216,  4588,  4587,    20,    21,   516,   515
    4,  1216,  1217,  4589,  4588,    21,    22,   517,   516
    5,  1217,  1218,  4590,  4589,    22,    23,   518,   517
    6,  1218,  1219,  4591,  4590,    23,    24,   519,   518
    7,  1219,  1220,  4592,  4591,    24,    25,   520,   519
    8,  1220,  1221,  4593,  4592,    25,    26,   521,   520
    9,  1221,  1222,  4594,  4593,    26,    27,   522,   521
   10,  1222,  1223,  4595,  4594,    27,    28,   523,   522
   11,  1223,  1224,  4596,  4595,    28,    29,   524,   523
   12,  1224,  1225,  4597,  4596,    29,    30,   525,   524
   13,  1225,  1226,  4598,  4597,    30,    31,   526,   525
   14,  1226,  1227,  4599,  4598,    31,    32,   527,   526
   15,  1227,  1228,  4600,  4599,    32,    33,   528,   527
   16,  1228,  1229,  4601,  4600,    33,    34,   529,   528
   17,  1229,  1230,  4602,  4601,    34,    35,   530,   529
   18,  1230,  1231,  4603,  4602,    35,    36,   531,   530
   19,  1231,   174,  1116,  4603,    36,     2,    37,   531
   20,  1018,  4586,  4604,  1019,    82,   514,   532,    81
** ... 11404 like lines cut
*Nset, nset=XZ_CUT
    3,    4,    6,    7,   17,   18,   51,   52,   53,   54,   55,   56,   57,   58,   59,   60
   61,   62,   63,   64,   65,   66,   67,   68,  115,  116,  117,  118,  119,  120,  121,  122
  123,  124,  125,  126,  127,  128,  129,  130,  131,  132,  147,  148,  149,  150,  151,  152
  153,  161,  162,  163,  164,  165,  166,  167,  465,  466,  467,  468,  469,  470,  471,  486
  487,  488,  489,  490,  491,  492,  493,  494,  495,  496,  497,  498,  499,  500,  501,  502
  503,  504,  505,  506,  507,  508,  509,  510,  511,  512,  513, 1340, 1341, 1342, 1343, 1344
 1345, 1346, 1347, 1348, 1349, 1350, 1351, 1352, 1353, 1354, 1355, 1356, 1357, 1358, 1359, 1360
 1361, 1362, 1363, 1364, 1365, 1366, 1367, 1368, 1369, 1370, 1371, 1372, 1373, 1374, 1375, 1376
 1377, 1378, 1379, 1380, 1381, 1382, 1383, 1384, 1385, 1386, 1387, 1388, 1389, 1390, 1391, 1392
 1393, 1394, 1395, 1396, 1397, 1398, 1399, 1400, 1401, 1402, 1403, 1404, 1405, 1406, 1407, 1408
 1409, 1410, 1411, 1412, 1413, 1414, 1415, 1416, 1417, 1418, 1419, 1420, 1421, 1422, 1423, 1424
 1425, 1426, 1427, 1428, 1429, 1430, 1431, 1432, 1433, 1434, 1435, 1436, 1437, 1438, 1439, 1440
 1441, 1442, 1443, 1444, 1445, 1446, 1447, 1448, 1449, 1450, 1451, 1452, 1453, 1454, 1455, 1456
 1457, 1458, 1459, 1460, 1461, 1462, 1463, 1464, 1465, 4488, 4489, 4490, 4491, 4492, 4493, 4494
 4495, 4496, 4497, 4498, 4499, 4500, 4501, 4502, 4503, 4504, 4505, 4506, 4507, 4508, 4509, 4510
 4511, 4512, 4513, 4514, 4515, 4516, 4517, 4518, 4519, 4520, 4521, 4522, 4523, 4524, 4525, 4526
 4527, 4528, 4529, 4530, 4531, 4532, 4533, 4534, 4535, 4536, 4537, 4538, 4539, 4540, 4541, 4542
 4543, 4544, 4545, 4546, 4547, 4548, 4549, 4550, 4551, 4552, 4553, 4554, 4555, 4556, 4557, 4558
 4559, 4560, 4561, 4562, 4563, 4564, 4565, 4566, 4567, 4568, 4569, 4570, 4571, 4572, 4573, 4574
 4575, 4576, 4577, 4578, 4579, 4580, 4581, 4582, 4583, 4584, 4585
*Elset, elset=XZ_CUT
   267,   268,   269,   270,   271,   272,   273,   274,   275,   276,   277,   278,   279,   280,   281,   282
   283,   284,   285,   552,   553,   554,   555,   556,   557,   558,   559,   560,   561,   562,   563,   564
   565,   566,   567,   568,   569,   570,   837,   838,   839,   840,   841,   842,   843,   844,   845,   846
   847,   848,   849,   850,   851,   852,   853,   854,   855,  1122,  1123,  1124,  1125,  1126,  1127,  1128
  1129,  1130,  1131,  1132,  1133,  1134,  1135,  1136,  1137,  1138,  1139,  1140,  1407,  1408,  1409,  1410
  1411,  1412,  1413,  1414,  1415,  1416,  1417,  1418,  1419,  1420,  1421,  1422,  1423,  1424,  1425,  1692
  1693,  1694,  1695,  1696,  1697,  1698,  1699,  1700,  1701,  1702,  1703,  1704,  1705,  1706,  1707,  1708
  1709,  1710,  1977,  1978,  1979,  1980,  1981,  1982,  1983,  1984,  1985,  1986,  1987,  1988,  1989,  1990
  1991,  1992,  1993,  1994,  1995,  2262,  2263,  2264,  2265,  2266,  2267,  2268,  2269,  2270,  2271,  2272
  2273,  2274,  2275,  2276,  2277,  2278,  2279,  2280,  9737,  9738,  9739,  9740,  9741,  9742,  9743,  9744
  9857,  9858,  9859,  9860,  9861,  9862,  9863,  9864,  9977,  9978,  9979,  9980,  9981,  9982,  9983,  9984
 10097, 10098, 10099, 10100, 10101, 10102, 10103, 10104, 10217, 10218, 10219, 10220, 10221, 10222, 10223, 10224
 10337, 10338, 10339, 10340, 10341, 10342, 10343, 10344, 10457, 10458, 10459, 10460, 10461, 10462, 10463, 10464
 10577, 10578, 10579, 10580, 10581, 10582, 10583, 10584, 10697, 10698, 10699, 10700, 10701, 10702, 10703, 10704
 10817, 10818, 10819, 10820, 10821, 10822, 10823, 10824, 10937, 10938, 10939, 10940, 10941, 10942, 10943, 10944
 11057, 11058, 11059, 11060, 11061, 11062, 11063, 11064, 11177, 11178, 11179, 11180, 11181, 11182, 11183, 11184
 11297, 11298, 11299, 11300, 11301, 11302, 11303, 11304, 11417, 11418, 11419, 11420, 11421, 11422, 11423, 11424
*Nset, nset=ZY_CUT
    9,   10,   11,   12,   17,   18,  175,  176,  177,  178,  179,  180,  181,  182,  183,  184
  185,  186,  187,  188,  189,  190,  191,  192,  193,  194,  195,  196,  197,  198,  199,  200
  201,  202,  203,  204,  205,  206,  207,  208,  209,  210,  211,  212,  213,  214,  215,  216
  217,  218,  219,  220,  221,  222,  223,  224,  225,  226,  227,  228,  229,  230,  231,  232
  233,  234,  235,  236,  237,  238,  239,  240,  451,  452,  453,  454,  455,  456,  457,  458
  459,  460,  461,  462,  463,  464,  465,  466,  467,  468,  469,  470,  471,  472,  473,  474
  475,  476,  477,  478,  479,  480,  481,  482,  483,  484,  485, 1466, 1467, 1468, 1469, 1470
 1471, 1472, 1473, 1474, 1475, 1476, 1477, 1478, 1479, 1480, 1481, 1482, 1483, 1484, 1485, 1486
 1487, 1488, 1489, 1490, 1491, 1492, 1493, 1494, 1495, 1496, 1497, 1498, 1499, 1500, 1501, 1502
 1503, 1504, 1505, 1506, 1507, 1508, 1509, 1510, 1511, 1512, 1513, 1514, 1515, 1516, 1517, 1518
 1519, 1520, 1521, 1522, 1523, 1524, 1525, 1526, 1527, 1528, 1529, 1530, 1531, 1532, 1533, 1534
 1535, 1536, 1537, 1538, 1539, 1540, 1541, 1542, 1543, 1544, 1545, 1546, 1547, 1548, 1549, 1550
 1551, 1552, 1553, 1554, 1555, 1556, 1557, 1558, 1559, 1560, 1561, 1562, 1563, 1564, 1565, 1566
 1567, 1568, 1569, 1570, 1571, 1572, 1573, 1574, 1575, 1576, 1577, 1578, 1579, 1580, 1581, 1582
 1583, 1584, 1585, 1586, 1587, 1588, 1589, 1590, 1591, 1592, 1593, 1594, 1595, 1596, 1597, 1598
 1599, 1600, 1601, 1602, 1603, 1604, 1605, 1606, 1607, 1608, 1609, 1610, 1611, 1612, 1613, 1614
 1615, 1616, 1617, 1618, 1619, 1620, 1621, 1622, 1623, 1624, 1625, 1626, 1627, 1628, 1629, 1630
 1631, 1632, 1633, 1634, 1635, 1636, 1637, 1638, 1639, 1640, 1641, 1642, 1643, 1644, 1645, 1646
 1647, 3998, 3999, 4000, 4001, 4002, 4003, 4004, 4005, 4006, 4007, 4008, 4009, 4010, 4011, 4012
 4013, 4014, 4015, 4016, 4017, 4018, 4019, 4020, 4021, 4022, 4023, 4024, 4025, 4026, 4027, 4028
** ... 5 like lines cut
*Elset, elset=ZY_CUT
 2281, 2282, 2283, 2284, 2285, 2286, 2287, 2288, 2289, 2290, 2291, 2292, 2293, 2294, 2295, 2296
 2297, 2298, 2299, 2300, 2301, 2302, 2303, 2304, 2305, 2306, 2307, 2308, 2309, 2310, 2311, 2312
 2313, 2314, 2315, 2316, 2317, 2318, 2319, 2320, 2321, 2322, 2323, 2324, 2325, 2326, 2327, 2328
 2329, 2330, 2331, 2332, 2333, 2334, 2335, 2336, 2337, 2338, 2339, 2340, 2341, 2342, 2343, 2344
 2345, 2346, 2347, 2348, 2349, 2350, 2351, 2352, 2353, 2354, 2355, 2356, 2357, 2358, 2359, 2360
 2361, 2362, 2363, 2364, 2365, 2366, 2367, 2368, 2369, 2370, 2371, 2372, 2373, 2374, 2375, 2376
 2377, 2378, 2379, 2380, 2381, 2382, 2383, 2384, 2385, 2386, 2387, 2388, 2389, 2390, 2391, 2392
 2393, 2394, 2395, 2396, 2397, 2398, 2399, 2400, 2401, 2402, 2403, 2404, 2405, 2406, 2407, 2408
 2409, 2410, 2411, 2412, 2413, 2414, 2415, 2416, 2417, 2418, 2419, 2420, 2421, 2422, 2423, 2424
 2425, 2426, 2427, 2428, 2429, 2430, 2431, 2432, 2433, 2434, 2435, 2436, 2437, 2438, 2439, 2440
 2441, 2442, 2443, 2444, 2445, 2446, 2447, 2448, 2449, 2450, 2451, 2452, 2453, 2454, 2455, 2456
 2457, 2458, 2459, 2460, 2461, 2462, 2463, 2464, 2465, 2466, 2467, 2468, 2469, 2470, 2471, 2472
 2473, 2474, 2475, 2476, 2477, 2478, 2479, 2480, 2481, 2482, 2483, 2484, 2485, 2486, 2487, 2488
 2489, 2490, 2491, 2492, 2493, 2494, 2495, 2496, 9625, 9626, 9627, 9628, 9629, 9630, 9631, 9632
 9633, 9634, 9635, 9636, 9637, 9638, 9639, 9640, 9641, 9642, 9643, 9644, 9645, 9646, 9647, 9648
 9649, 9650, 9651, 9652, 9653, 9654, 9655, 9656, 9657, 9658, 9659, 9660, 9661, 9662, 9663, 9664
 9665, 9666, 9667, 9668, 9669, 9670, 9671, 9672, 9673, 9674, 9675, 9676, 9677, 9678, 9679, 9680
 9681, 9682, 9683, 9684, 9685, 9686, 9687, 9688, 9689, 9690, 9691, 9692, 9693, 9694, 9695, 9696
 9697, 9698, 9699, 9700, 9701, 9702, 9703, 9704, 9705, 9706, 9707, 9708, 9709, 9710, 9711, 9712
 9713, 9714, 9715, 9716, 9717, 9718, 9719, 9720, 9721, 9722, 9723, 9724, 9725, 9726, 9727, 9728
 9729, 9730, 9731, 9732, 9733, 9734, 9735, 9736, 9737, 9738, 9739, 9740, 9741, 9742, 9743, 9744
*Nset, nset=SET-8, generate
     1,  13545,      1
*Elset, elset=SET-8, generate
     1,  11424,      1
*Nset, nset=CONTACT
    5,    6,    9,   17,  101,  102,  103,  104,  105,  106,  107,  108,  109,  110,  111,  112
  113,  114,  314,  315,  316,  317,  318,  319,  320,  321,  322,  323,  324,  325,  326,  327
  451,  452,  453,  454,  455,  456,  457,  458,  459,  460,  461,  462,  463,  464,  500,  501
  502,  503,  504,  505,  506,  507,  508,  509,  510,  511,  512,  513, 4292, 4293, 4294, 4295
 4296, 4297, 4298, 4299, 4300, 4301, 4302, 4303, 4304, 4305, 4306, 4307, 4308, 4309, 4310, 4311
 4312, 4313, 4314, 4315, 4316, 4317, 4318, 4319, 4320, 4321, 4322, 4323, 4324, 4325, 4326, 4327
 4328, 4329, 4330, 4331, 4332, 4333, 4334, 4335, 4336, 4337, 4338, 4339, 4340, 4341, 4342, 4343
 4344, 4345, 4346, 4347, 4348, 4349, 4350, 4351, 4352, 4353, 4354, 4355, 4356, 4357, 4358, 4359
 4360, 4361, 4362, 4363, 4364, 4365, 4366, 4367, 4368, 4369, 4370, 4371, 4372, 4373, 4374, 4375
 4376, 4377, 4378, 4379, 4380, 4381, 4382, 4383, 4384, 4385, 4386, 4387, 4388, 4389, 4390, 4391
 4392, 4393, 4394, 4395, 4396, 4397, 4398, 4399, 4400, 4401, 4402, 4403, 4404, 4405, 4406, 4407
 4408, 4409, 4410, 4411, 4412, 4413, 4414, 4415, 4416, 4417, 4418, 4419, 4420, 4421, 4422, 4423
 4424, 4425, 4426, 4427, 4428, 4429, 4430, 4431, 4432, 4433, 4434, 4435, 4436, 4437, 4438, 4439
 4440, 4441, 4442, 4443, 4444, 4445, 4446, 4447, 4448, 4449, 4450, 4451, 4452, 4453, 4454, 4455
 4456, 4457, 4458, 4459, 4460, 4461, 4462, 4463, 4464, 4465, 4466, 4467, 4468, 4469, 4470, 4471
 4472, 4473, 4474, 4475, 4476, 4477, 4478, 4479, 4480, 4481, 4482, 4483, 4484, 4485, 4486, 4487
*Elset, elset=CONTACT, generate
  9632,  11424,      8
*Elset, elset=CONTACTELEMENTS, generate
  9625,  11417,      8
*Nset, nset=CONTACTNODES
    2,    3,   10,   18,   37,   38,   39,   40,   41,   42,   43,   44,   45,   46,   47,   48
   49,   50,  342,  343,  344,  345,  346,  347,  348,  349,  350,  351,  352,  353,  354,  355
  472,  473,  474,  475,  476,  477,  478,  479,  480,  481,  482,  483,  484,  485,  486,  487
  488,  489,  490,  491,  492,  493,  494,  495,  496,  497,  498,  499, 4096, 4097, 4098, 4099
 4100, 4101, 4102, 4103, 4104, 4105, 4106, 4107, 4108, 4109, 4110, 4111, 4112, 4113, 4114, 4115
 4116, 4117, 4118, 4119, 4120, 4121, 4122, 4123, 4124, 4125, 4126, 4127, 4128, 4129, 4130, 4131
 4132, 4133, 4134, 4135, 4136, 4137, 4138, 4139, 4140, 4141, 4142, 4143, 4144, 4145, 4146, 4147
 4148, 4149, 4150, 4151, 4152, 4153, 4154, 4155, 4156, 4157, 4158, 4159, 4160, 4161, 4162, 4163
 4164, 4165, 4166, 4167, 4168, 4169, 4170, 4171, 4172, 4173, 4174, 4175, 4176, 4177, 4178, 4179
 4180, 4181, 4182, 4183, 4184, 4185, 4186, 4187, 4188, 4189, 4190, 4191, 4192, 4193, 4194, 4195
 4196, 4197, 4198, 4199, 4200, 4201, 4202, 4203, 4204, 4205, 4206, 4207, 4208, 4209, 4210, 4211
 4212, 4213, 4214, 4215, 4216, 4217, 4218, 4219, 4220, 4221, 4222, 4223, 4224, 4225, 4226, 4227
 4228, 4229, 4230, 4231, 4232, 4233, 4234, 4235, 4236, 4237, 4238, 4239, 4240, 4241, 4242, 4243
 4244, 4245, 4246, 4247, 4248, 4249, 4250, 4251, 4252, 4253, 4254, 4255, 4256, 4257, 4258, 4259
 4260, 4261, 4262, 4263, 4264, 4265, 4266, 4267, 4268, 4269, 4270, 4271, 4272, 4273, 4274, 4275
 4276, 4277, 4278, 4279, 4280, 4281, 4282, 4283, 4284, 4285, 4286, 4287, 4288, 4289, 4290, 4291
*Elset, elset=_TOP_S2, internal, generate
   1,  285,    1
*Elset, elset=_TOP_S4, internal, generate
 2288,  9624,     8
*Elset, elset=_TOP_S6, internal, generate
  9625,  11417,      8
*Elset, elset="_cutoff sides (symmetry)_S2", internal
 2281, 2282, 2283, 2284, 2285, 2286, 2287, 2288, 2289, 2290, 2291, 2292, 2293, 2294, 2295, 2296
 2297, 2298, 2299, 2300, 2301, 2302, 2303, 2304, 2305, 2306, 2307, 2308, 2309, 2310, 2311, 2312
 2313, 2314, 2315, 2316, 2317, 2318, 2319, 2320, 2321, 2322, 2323, 2324, 2325, 2326, 2327, 2328
 2329, 2330, 2331, 2332, 2333, 2334, 2335, 2336, 2337, 2338, 2339, 2340, 2341, 2342, 2343, 2344
 2345, 2346, 2347, 2348, 2349, 2350, 2351, 2352, 2353, 2354, 2355, 2356, 2357, 2358, 2359, 2360
 2361, 2362, 2363, 2364, 2365, 2366, 2367, 2368, 2369, 2370, 2371, 2372, 2373, 2374, 2375, 2376
 2377, 2378, 2379, 2380, 2381, 2382, 2383, 2384, 2385, 2386, 2387, 2388, 2389, 2390, 2391, 2392
 2393, 2394, 2395, 2396, 2397, 2398, 2399, 2400, 2401, 2402, 2403, 2404, 2405, 2406, 2407, 2408
 2409, 2410, 2411, 2412, 2413, 2414, 2415, 2416, 2417, 2418, 2419, 2420, 2421, 2422, 2423, 2424
 2425, 2426, 2427, 2428, 2429, 2430, 2431, 2432, 2433, 2434, 2435, 2436, 2437, 2438, 2439, 2440
 2441, 2442, 2443, 2444, 2445, 2446, 2447, 2448, 2449, 2450, 2451, 2452, 2453, 2454, 2455, 2456
 2457, 2458, 2459, 2460, 2461, 2462, 2463, 2464, 2465, 2466, 2467, 2468, 2469, 2470, 2471, 2472
 2473, 2474, 2475, 2476, 2477, 2478, 2479, 2480, 2481, 2482, 2483, 2484, 2485, 2486, 2487, 2488
 2489, 2490, 2491, 2492, 2493, 2494, 2495, 2496, 9625, 9626, 9627, 9628, 9629, 9630, 9631, 9632
 9633, 9634, 9635, 9636, 9637, 9638, 9639, 9640, 9641, 9642, 9643, 9644, 9645, 9646, 9647, 9648
 9649, 9650, 9651, 9652, 9653, 9654, 9655, 9656, 9657, 9658, 9659, 9660, 9661, 9662, 9663, 9664
 9665, 9666, 9667, 9668, 9669, 9670, 9671, 9672, 9673, 9674, 9675, 9676, 9677, 9678, 9679, 9680
 9681, 9682, 9683, 9684, 9685, 9686, 9687, 9688, 9689, 9690, 9691, 9692, 9693, 9694, 9695, 9696
 9697, 9698, 9699, 9700, 9701, 9702, 9703, 9704, 9705, 9706, 9707, 9708, 9709, 9710, 9711, 9712
 9713, 9714, 9715, 9716, 9717, 9718, 9719, 9720, 9721, 9722, 9723, 9724, 9725, 9726, 9727, 9728
 9729, 9730, 9731, 9732, 9733, 9734, 9735, 9736, 9737, 9738, 9739, 9740, 9741, 9742, 9743, 9744
*Elset, elset="_cutoff sides (symmetry)_S5", internal
   267,   268,   269,   270,   271,   272,   273,   274,   275,   276,   277,   278,   279,   280,   281,   282
   283,   284,   285,   552,   553,   554,   555,   556,   557,   558,   559,   560,   561,   562,   563,   564
   565,   566,   567,   568,   569,   570,   837,   838,   839,   840,   841,   842,   843,   844,   845,   846
   847,   848,   849,   850,   851,   852,   853,   854,   855,  1122,  1123,  1124,  1125,  1126,  1127,  1128
  1129,  1130,  1131,  1132,  1133,  1134,  1135,  1136,  1137,  1138,  1139,  1140,  1407,  1408,  1409,  1410
  1411,  1412,  1413,  1414,  1415,  1416,  1417,  1418,  1419,  1420,  1421,  1422,  1423,  1424,  1425,  1692
  1693,  1694,  1695,  1696,  1697,  1698,  1699,  1700,  1701,  1702,  1703,  1704,  1705,  1706,  1707,  1708
  1709,  1710,  1977,  1978,  1979,  1980,  1981,  1982,  1983,  1984,  1985,  1986,  1987,  1988,  1989,  1990
  1991,  1992,  1993,  1994,  1995,  2262,  2263,  2264,  2265,  2266,  2267,  2268,  2269,  2270,  2271,  2272
  2273,  2274,  2275,  2276,  2277,  2278,  2279,  2280,  9737,  9738,  9739,  9740,  9741,  9742,  9743,  9744
  9857,  9858,  9859,  9860,  9861,  9862,  9863,  9864,  9977,  9978,  9979,  9980,  9981,  9982,  9983,  9984
 10097, 10098, 10099, 10100, 10101, 10102, 10103, 10104, 10217, 10218, 10219, 10220, 10221, 10222, 10223, 10224
 10337, 10338, 10339, 10340, 10341, 10342, 10343, 10344, 10457, 10458, 10459, 10460, 10461, 10462, 10463, 10464
 10577, 10578, 10579, 10580, 10581, 10582, 10583, 10584, 10697, 10698, 10699, 10700, 10701, 10702, 10703, 10704
 10817, 10818, 10819, 10820, 10821, 10822, 10823, 10824, 10937, 10938, 10939, 10940, 10941, 10942, 10943, 10944
 11057, 11058, 11059, 11060, 11061, 11062, 11063, 11064, 11177, 11178, 11179, 11180, 11181, 11182, 11183, 11184
 11297, 11298, 11299, 11300, 11301, 11302, 11303, 11304, 11417, 11418, 11419, 11420, 11421, 11422, 11423, 11424
*Elset, elset="_Edges (open)_S6", internal, generate
    1,  2262,    19
*Elset, elset="_Edges (open)_S5", internal
 2489, 2490, 2491, 2492, 2493, 2494, 2495, 2496, 2705, 2706, 2707, 2708, 2709, 2710, 2711, 2712
 2921, 2922, 2923, 2924, 2925, 2926, 2927, 2928, 3137, 3138, 3139, 3140, 3141, 3142, 3143, 3144
 3353, 3354, 3355, 3356, 3357, 3358, 3359, 3360, 3569, 3570, 3571, 3572, 3573, 3574, 3575, 3576
 3785, 3786, 3787, 3788, 3789, 3790, 3791, 3792, 4001, 4002, 4003, 4004, 4005, 4006, 4007, 4008
 4217, 4218, 4219, 4220, 4221, 4222, 4223, 4224, 4433, 4434, 4435, 4436, 4437, 4438, 4439, 4440
 4649, 4650, 4651, 4652, 4653, 4654, 4655, 4656, 4865, 4866, 4867, 4868, 4869, 4870, 4871, 4872
 5081, 5082, 5083, 5084, 5085, 5086, 5087, 5088, 5297, 5298, 5299, 5300, 5301, 5302, 5303, 5304
 5513, 5514, 5515, 5516, 5517, 5518, 5519, 5520, 5665, 5666, 5667, 5668, 5669, 5670, 5671, 5672
 5817, 5818, 5819, 5820, 5821, 5822, 5823, 5824, 5969, 5970, 5971, 5972, 5973, 5974, 5975, 5976
 6121, 6122, 6123, 6124, 6125, 6126, 6127, 6128, 6273, 6274, 6275, 6276, 6277, 6278, 6279, 6280
 6425, 6426, 6427, 6428, 6429, 6430, 6431, 6432, 6577, 6578, 6579, 6580, 6581, 6582, 6583, 6584
 6729, 6730, 6731, 6732, 6733, 6734, 6735, 6736, 6881, 6882, 6883, 6884, 6885, 6886, 6887, 6888
 7033, 7034, 7035, 7036, 7037, 7038, 7039, 7040, 7185, 7186, 7187, 7188, 7189, 7190, 7191, 7192
 7337, 7338, 7339, 7340, 7341, 7342, 7343, 7344, 7489, 7490, 7491, 7492, 7493, 7494, 7495, 7496
 7641, 7642, 7643, 7644, 7645, 7646, 7647, 7648, 7793, 7794, 7795, 7796, 7797, 7798, 7799, 7800
 7945, 7946, 7947, 7948, 7949, 7950, 7951, 7952, 8097, 8098, 8099, 8100, 8101, 8102, 8103, 8104
 8249, 8250, 8251, 8252, 8253, 8254, 8255, 8256, 8401, 8402, 8403, 8404, 8405, 8406, 8407, 8408
 8553, 8554, 8555, 8556, 8557, 8558, 8559, 8560, 8705, 8706, 8707, 8708, 8709, 8710, 8711, 8712
 8857, 8858, 8859, 8860, 8861, 8862, 8863, 8864, 9009, 9010, 9011, 9012, 9013, 9014, 9015, 9016
 9161, 9162, 9163, 9164, 9165, 9166, 9167, 9168, 9313, 9314, 9315, 9316, 9317, 9318, 9319, 9320
 9465, 9466, 9467, 9468, 9469, 9470, 9471, 9472, 9617, 9618, 9619, 9620, 9621, 9622, 9623, 9624
*Elset, elset="_Edges (open)_S2", internal, generate
 5521,  5672,     1
*Elset, elset=_BOTTOM_S6, internal, generate
 2281,  9617,     8
*Elset, elset=_BOTTOM_S4, internal, generate
  9632,  11424,      8
*Elset, elset=_BOTTOM_S1, internal, generate
 1996,  2280,     1
*Elset, elset=_TOP_S2_1, internal, generate
   1,  285,    1
*Elset, elset=_TOP_S4_1, internal, generate
 2288,  9624,     8
*Elset, elset=_TOP_S6_1, internal, generate
  9625,  11417,      8
*Surface, type=ELEMENT, name=TOP
_TOP_S2_1, S2
_TOP_S4_1, S4
_TOP_S6_1, S6
*Elset, elset="_cutoff sides (symmetry)_S2", internal
 2281, 2282, 2283, 2284, 2285, 2286, 2287, 2288, 2289, 2290, 2291, 2292, 2293, 2294, 2295, 2296
 2297, 2298, 2299, 2300, 2301, 2302, 2303, 2304, 2305, 2306, 2307, 2308, 2309, 2310, 2311, 2312
 2313, 2314, 2315, 2316, 2317, 2318, 2319, 2320, 2321, 2322, 2323, 2324, 2325, 2326, 2327, 2328
 2329, 2330, 2331, 2332, 2333, 2334, 2335, 2336, 2337, 2338, 2339, 2340, 2341, 2342, 2343, 2344
 2345, 2346, 2347, 2348, 2349, 2350, 2351, 2352, 2353, 2354, 2355, 2356, 2357, 2358, 2359, 2360
 2361, 2362, 2363, 2364, 2365, 2366, 2367, 2368, 2369, 2370, 2371, 2372, 2373, 2374, 2375, 2376
 2377, 2378, 2379, 2380, 2381, 2382, 2383, 2384, 2385, 2386, 2387, 2388, 2389, 2390, 2391, 2392
 2393, 2394, 2395, 2396, 2397, 2398, 2399, 2400, 2401, 2402, 2403, 2404, 2405, 2406, 2407, 2408
 2409, 2410, 2411, 2412, 2413, 2414, 2415, 2416, 2417, 2418, 2419, 2420, 2421, 2422, 2423, 2424
 2425, 2426, 2427, 2428, 2429, 2430, 2431, 2432, 2433, 2434, 2435, 2436, 2437, 2438, 2439, 2440
 2441, 2442, 2443, 2444, 2445, 2446, 2447, 2448, 2449, 2450, 2451, 2452, 2453, 2454, 2455, 2456
 2457, 2458, 2459, 2460, 2461, 2462, 2463, 2464, 2465, 2466, 2467, 2468, 2469, 2470, 2471, 2472
 2473, 2474, 2475, 2476, 2477, 2478, 2479, 2480, 2481, 2482, 2483, 2484, 2485, 2486, 2487, 2488
 2489, 2490, 2491, 2492, 2493, 2494, 2495, 2496, 9625, 9626, 9627, 9628, 9629, 9630, 9631, 9632
 9633, 9634, 9635, 9636, 9637, 9638, 9639, 9640, 9641, 9642, 9643, 9644, 9645, 9646, 9647, 9648
 9649, 9650, 9651, 9652, 9653, 9654, 9655, 9656, 9657, 9658, 9659, 9660, 9661, 9662, 9663, 9664
 9665, 9666, 9667, 9668, 9669, 9670, 9671, 9672, 9673, 9674, 9675, 9676, 9677, 9678, 9679, 9680
 9681, 9682, 9683, 9684, 9685, 9686, 9687, 9688, 9689, 9690, 9691, 9692, 9693, 9694, 9695, 9696
 9697, 9698, 9699, 9700, 9701, 9702, 9703, 9704, 9705, 9706, 9707, 9708, 9709, 9710, 9711, 9712
 9713, 9714, 9715, 9716, 9717, 9718, 9719, 9720, 9721, 9722, 9723, 9724, 9725, 9726, 9727, 9728
 9729, 9730, 9731, 9732, 9733, 9734, 9735, 9736, 9737, 9738, 9739, 9740, 9741, 9742, 9743, 9744
*Elset, elset="_cutoff sides (symmetry)_S5", internal
   267,   268,   269,   270,   271,   272,   273,   274,   275,   276,   277,   278,   279,   280,   281,   282
   283,   284,   285,   552,   553,   554,   555,   556,   557,   558,   559,   560,   561,   562,   563,   564
   565,   566,   567,   568,   569,   570,   837,   838,   839,   840,   841,   842,   843,   844,   845,   846
   847,   848,   849,   850,   851,   852,   853,   854,   855,  1122,  1123,  1124,  1125,  1126,  1127,  1128
  1129,  1130,  1131,  1132,  1133,  1134,  1135,  1136,  1137,  1138,  1139,  1140,  1407,  1408,  1409,  1410
  1411,  1412,  1413,  1414,  1415,  1416,  1417,  1418,  1419,  1420,  1421,  1422,  1423,  1424,  1425,  1692
  1693,  1694,  1695,  1696,  1697,  1698,  1699,  1700,  1701,  1702,  1703,  1704,  1705,  1706,  1707,  1708
  1709,  1710,  1977,  1978,  1979,  1980,  1981,  1982,  1983,  1984,  1985,  1986,  1987,  1988,  1989,  1990
  1991,  1992,  1993,  1994,  1995,  2262,  2263,  2264,  2265,  2266,  2267,  2268,  2269,  2270,  2271,  2272
  2273,  2274,  2275,  2276,  2277,  2278,  2279,  2280,  9737,  9738,  9739,  9740,  9741,  9742,  9743,  9744
  9857,  9858,  9859,  9860,  9861,  9862,  9863,  9864,  9977,  9978,  9979,  9980,  9981,  9982,  9983,  9984
 10097, 10098, 10099, 10100, 10101, 10102, 10103, 10104, 10217, 10218, 10219, 10220, 10221, 10222, 10223, 10224
 10337, 10338, 10339, 10340, 10341, 10342, 10343, 10344, 10457, 10458, 10459, 10460, 10461, 10462, 10463, 10464
 10577, 10578, 10579, 10580, 10581, 10582, 10583, 10584, 10697, 10698, 10699, 10700, 10701, 10702, 10703, 10704
 10817, 10818, 10819, 10820, 10821, 10822, 10823, 10824, 10937, 10938, 10939, 10940, 10941, 10942, 10943, 10944
 11057, 11058, 11059, 11060, 11061, 11062, 11063, 11064, 11177, 11178, 11179, 11180, 11181, 11182, 11183, 11184
 11297, 11298, 11299, 11300, 11301, 11302, 11303, 11304, 11417, 11418, 11419, 11420, 11421, 11422, 11423, 11424
*Surface, type=ELEMENT, name="cutoff sides (symmetry)"
"_cutoff sides (symmetry)_S2", S2
"_cutoff sides (symmetry)_S5", S5
*Elset, elset="_Edges (open)_S6", internal, generate
    1,  2262,    19
*Elset, elset="_Edges (open)_S5", internal
 2489, 2490, 2491, 2492, 2493, 2494, 2495, 2496, 2705, 2706, 2707, 2708, 2709, 2710, 2711, 2712
 2921, 2922, 2923, 2924, 2925, 2926, 2927, 2928, 3137, 3138, 3139, 3140, 3141, 3142, 3143, 3144
 3353, 3354, 3355, 3356, 3357, 3358, 3359, 3360, 3569, 3570, 3571, 3572, 3573, 3574, 3575, 3576
 3785, 3786, 3787, 3788, 3789, 3790, 3791, 3792, 4001, 4002, 4003, 4004, 4005, 4006, 4007, 4008
 4217, 4218, 4219, 4220, 4221, 4222, 4223, 4224, 4433, 4434, 4435, 4436, 4437, 4438, 4439, 4440
 4649, 4650, 4651, 4652, 4653, 4654, 4655, 4656, 4865, 4866, 4867, 4868, 4869, 4870, 4871, 4872
 5081, 5082, 5083, 5084, 5085, 5086, 5087, 5088, 5297, 5298, 5299, 5300, 5301, 5302, 5303, 5304
 5513, 5514, 5515, 5516, 5517, 5518, 5519, 5520, 5665, 5666, 5667, 5668, 5669, 5670, 5671, 5672
 5817, 5818, 5819, 5820, 5821, 5822, 5823, 5824, 5969, 5970, 5971, 5972, 5973, 5974, 5975, 5976
 6121, 6122, 6123, 6124, 6125, 6126, 6127, 6128, 6273, 6274, 6275, 6276, 6277, 6278, 6279, 6280
 6425, 6426, 6427, 6428, 6429, 6430, 6431, 6432, 6577, 6578, 6579, 6580, 6581, 6582, 6583, 6584
 6729, 6730, 6731, 6732, 6733, 6734, 6735, 6736, 6881, 6882, 6883, 6884, 6885, 6886, 6887, 6888
 7033, 7034, 7035, 7036, 7037, 7038, 7039, 7040, 7185, 7186, 7187, 7188, 7189, 7190, 7191, 7192
 7337, 7338, 7339, 7340, 7341, 7342, 7343, 7344, 7489, 7490, 7491, 7492, 7493, 7494, 7495, 7496
 7641, 7642, 7643, 7644, 7645, 7646, 7647, 7648, 7793, 7794, 7795, 7796, 7797, 7798, 7799, 7800
 7945, 7946, 7947, 7948, 7949, 7950, 7951, 7952, 8097, 8098, 8099, 8100, 8101, 8102, 8103, 8104
 8249, 8250, 8251, 8252, 8253, 8254, 8255, 8256, 8401, 8402, 8403, 8404, 8405, 8406, 8407, 8408
 8553, 8554, 8555, 8556, 8557, 8558, 8559, 8560, 8705, 8706, 8707, 8708, 8709, 8710, 8711, 8712
 8857, 8858, 8859, 8860, 8861, 8862, 8863, 8864, 9009, 9010, 9011, 9012, 9013, 9014, 9015, 9016
 9161, 9162, 9163, 9164, 9165, 9166, 9167, 9168, 9313, 9314, 9315, 9316, 9317, 9318, 9319, 9320
 9465, 9466, 9467, 9468, 9469, 9470, 9471, 9472, 9617, 9618, 9619, 9620, 9621, 9622, 9623, 9624
*Elset, elset="_Edges (open)_S2", internal, generate
 5521,  5672,     1
*Surface, type=ELEMENT, name="Edges (open)"
"_Edges (open)_S6", S6
"_Edges (open)_S5", S5
"_Edges (open)_S2", S2
*Elset, elset=_BOTTOM_S6_1, internal, generate
 2281,  9617,     8
*Elset, elset=_BOTTOM_S4_1, internal, generate
  9632,  11424,      8
*Elset, elset=_BOTTOM_S1_1, internal, generate
 1996,  2280,     1
*Surface, type=ELEMENT, name=BOTTOM
_BOTTOM_S6_1, S6
_BOTTOM_S4_1, S4
_BOTTOM_S1_1, S1
** Section: Section-1-SET-8
*Solid Section, elset=SET-8, material=BATTERY
,
*End Part
**  
*Part, name=TABLE-1
*End Part
**  
**
** ASSEMBLY
**
*Assembly, name=Assembly
**  
*Instance, name=QUARTER-BATTERY-1, part=QUARTER-BATTERY
*End Instance
**  
*Instance, name=H5-1, part=H5-1
        29.3,        32.75,        10.17
        29.3,        32.75,        10.17, 30.3000000126881,        32.75,        10.17, 89.9999992730282
*Node
      1, -9.18485047e-16,          -5.,           0.
*Nset, nset=H5-1-RefPt_, internal
 1,
*Nset, nset=H5-1-REFPT_, internal
 1,
*Nset, nset=INDENTER
 1,
*Surface, type=REVOLUTION, name=H5-1-INDENTER
START,           5.,           0.
 CIRCL,           0.,          -5.,           0.,           0.
*End Instance
**  
*Instance, name=TABLE-1, part=TABLE-1
-6.61584808675157e-15,           0., 6.61584817069379e-15
-6.61584808675157e-15,           0., 6.61584817069379e-15, -6.61584808675157e-15, -1.00000001268805, 6.61584817069379e-15, 89.9999992730282
*Node
      1,           0.,         67.5,           0.
*Nset, nset=TABLE-1-RefPt_, internal
 1,
*Nset, nset=TABLE-1-REFPT_, internal
 1,
*Nset, nset=TABLE
 1,
*Surface, type=CYLINDER, name=TABLE-1-TABLETOP
START,           0.,         67.5
 LINE,           0.,        -32.5
*End Instance
**  
*Nset, nset=BOTTOM, instance=QUARTER-BATTERY-1
    5,    6,    7,    8,    9,   12,   14,   16,   17,   83,   84,   85,   86,   87,   88,   89
   90,   91,   92,   93,   94,   95,   96,   97,   98,   99,  100,  101,  102,  103,  104,  105
  106,  107,  108,  109,  110,  111,  112,  113,  114,  115,  116,  117,  118,  119,  120,  121
  122,  123,  124,  125,  126,  127,  128,  129,  130,  131,  132,  133,  134,  135,  136,  137
  138,  139,  140,  141,  142,  143,  144,  145,  146,  215,  216,  217,  218,  219,  220,  221
  222,  223,  224,  225,  226,  227,  228,  229,  230,  231,  232,  233,  234,  235,  236,  237
  238,  239,  240,  274,  275,  276,  277,  278,  279,  280,  281,  282,  283,  284,  285,  286
  287,  288,  289,  290,  291,  292,  293,  294,  295,  296,  297,  298,  299,  300,  301,  302
  303,  304,  305,  306,  307,  308,  309,  310,  311,  312,  313,  314,  315,  316,  317,  318
  319,  320,  321,  322,  323,  324,  325,  326,  327,  381,  382,  383,  384,  385,  386,  387
  388,  389,  390,  391,  392,  393,  394,  395,  396,  397,  398,  399,  400,  401,  402,  403
  404,  405,  406,  407,  408,  409,  410,  411,  412,  413,  414,  415,  416,  417,  418,  419
  420,  421,  422,  423,  424,  451,  452,  453,  454,  455,  456,  457,  458,  459,  460,  461
  462,  463,  464,  500,  501,  502,  503,  504,  505,  506,  507,  508,  509,  510,  511,  512
  513,  766,  767,  768,  769,  770,  771,  772,  773,  774,  775,  776,  777,  778,  779,  780
  781,  782,  783,  784,  785,  786,  787,  788,  789,  790,  791,  792,  793,  794,  795,  796
  797,  798,  799,  800,  801,  802,  803,  804,  805,  806,  807,  808,  809,  810,  811,  812
  813,  814,  815,  816,  817,  818,  819,  820,  821,  822,  823,  824,  825,  826,  827,  828
  829,  830,  831,  832,  833,  834,  835,  836,  837,  838,  839,  840,  841,  842,  843,  844
  845,  846,  847,  848,  849,  850,  851,  852,  853,  854,  855,  856,  857,  858,  859,  860
** ... 75 like lines cut
*Elset, elset=BOTTOM, instance=QUARTER-BATTERY-1
  1996,  1997,  1998,  1999,  2000,  2001,  2002,  2003,  2004,  2005,  2006,  2007,  2008,  2009,  2010,  2011
  2012,  2013,  2014,  2015,  2016,  2017,  2018,  2019,  2020,  2021,  2022,  2023,  2024,  2025,  2026,  2027
  2028,  2029,  2030,  2031,  2032,  2033,  2034,  2035,  2036,  2037,  2038,  2039,  2040,  2041,  2042,  2043
  2044,  2045,  2046,  2047,  2048,  2049,  2050,  2051,  2052,  2053,  2054,  2055,  2056,  2057,  2058,  2059
  2060,  2061,  2062,  2063,  2064,  2065,  2066,  2067,  2068,  2069,  2070,  2071,  2072,  2073,  2074,  2075
  2076,  2077,  2078,  2079,  2080,  2081,  2082,  2083,  2084,  2085,  2086,  2087,  2088,  2089,  2090,  2091
  2092,  2093,  2094,  2095,  2096,  2097,  2098,  2099,  2100,  2101,  2102,  2103,  2104,  2105,  2106,  2107
  2108,  2109,  2110,  2111,  2112,  2113,  2114,  2115,  2116,  2117,  2118,  2119,  2120,  2121,  2122,  2123
  2124,  2125,  2126,  2127,  2128,  2129,  2130,  2131,  2132,  2133,  2134,  2135,  2136,  2137,  2138,  2139
  2140,  2141,  2142,  2143,  2144,  2145,  2146,  2147,  2148,  2149,  2150,  2151,  2152,  2153,  2154,  2155
  2156,  2157,  2158,  2159,  2160,  2161,  2162,  2163,  2164,  2165,  2166,  2167,  2168,  2169,  2170,  2171
  2172,  2173,  2174,  2175,  2176,  2177,  2178,  2179,  2180,  2181,  2182,  2183,  2184,  2185,  2186,  2187
  2188,  2189,  2190,  2191,  2192,  2193,  2194,  2195,  2196,  2197,  2198,  2199,  2200,  2201,  2202,  2203
  2204,  2205,  2206,  2207,  2208,  2209,  2210,  2211,  2212,  2213,  2214,  2215,  2216,  2217,  2218,  2219
  2220,  2221,  2222,  2223,  2224,  2225,  2226,  2227,  2228,  2229,  2230,  2231,  2232,  2233,  2234,  2235
  2236,  2237,  2238,  2239,  2240,  2241,  2242,  2243,  2244,  2245,  2246,  2247,  2248,  2249,  2250,  2251
  2252,  2253,  2254,  2255,  2256,  2257,  2258,  2259,  2260,  2261,  2262,  2263,  2264,  2265,  2266,  2267
  2268,  2269,  2270,  2271,  2272,  2273,  2274,  2275,  2276,  2277,  2278,  2279,  2280,  2281,  2289,  2297
  2305,  2313,  2321,  2329,  2337,  2345,  2353,  2361,  2369,  2377,  2385,  2393,  2401,  2409,  2417,  2425
  2433,  2441,  2449,  2457,  2465,  2473,  2481,  2489,  2497,  2505,  2513,  2521,  2529,  2537,  2545,  2553
** ... 70 like lines cut
** Constraint: RigidBody-1
*Rigid Body, ref node=H5-1.INDENTER, analytical surface=H5-1.H5-1-INDENTER
** Constraint: RigidBody-2
*Rigid Body, ref node=TABLE-1.TABLE, analytical surface=TABLE-1.TABLE-1-TABLETOP
*End Assembly
*Amplitude, name=EQUALLY_SPACED, time=TOTAL TIME, definition=EQUALLY SPACED, fixed interval=250.
             0.,              1.
*Amplitude, name=SMOOTH_STEP, time=TOTAL TIME, definition=SMOOTH STEP
             0.,              0.,            250.,              1.
** 
** MATERIALS
** 
**  Initial plastic behavior is for copper, to be determined
** 
** 
*Material, name=BATTERY
*Density
 5.83e-09,
*Elastic
4200., 0.1
*Plastic
100.,  0.
120., 0.1
200., 0.2
250., 0.3
270., 0.4
290., 0.5
300., 0.6
** 
** INTERACTION PROPERTIES
** 
*Surface Interaction, name=INTPROP-1
*Friction
 0.1,
*Surface Behavior, pressure-overclosure=HARD
** 
** BOUNDARY CONDITIONS
** 
** Name: Disp-BC-1 Type: Displacement/Rotation
*Boundary
H5-1.INDENTER, 1, 1
** Name: Disp-BC-2 Type: Displacement/Rotation
*Boundary
H5-1.INDENTER, 2, 2
** Name: Disp-BC-3 Type: Displacement/Rotation
*Boundary
H5-1.INDENTER, 4, 4
** Name: Disp-BC-4 Type: Displacement/Rotation
*Boundary
H5-1.INDENTER, 5, 5
** Name: Disp-BC-5 Type: Displacement/Rotation
*Boundary
H5-1.INDENTER, 6, 6
** Name: Disp-BC-6 Type: Symmetry/Antisymmetry/Encastre
*Boundary
QUARTER-BATTERY-1.XZ_CUT, YSYMM
** Name: Disp-BC-7 Type: Symmetry/Antisymmetry/Encastre
*Boundary
QUARTER-BATTERY-1.ZY_CUT, XSYMM
** Name: Disp-BC-8 Type: Symmetry/Antisymmetry/Encastre
*Boundary
TABLE-1.TABLE, ENCASTRE
** ----------------------------------------------------------------
** 
** STEP: Step-1
** 
*Step, name=Step-1, nlgeom=YES
Indentation Test
*Dynamic, Explicit
, 250.
*Bulk Viscosity
0.06, 1.2
** Mass Scaling: Semi-Automatic
**               Whole Model
*Fixed Mass Scaling, dt=0.05, type=below min
** 
** BOUNDARY CONDITIONS
** 
** Name: Disp-BC-9 Type: Displacement/Rotation
*Boundary, amplitude=SMOOTH_STEP
H5-1.INDENTER, 3, 3, -1.98
** 
** INTERACTIONS
** 
** Interaction: INT-1-1
*Contact Pair, interaction=INTPROP-1, mechanical constraint=KINEMATIC, cpset=INT-1-1
H5-1.H5-1-INDENTER, QUARTER-BATTERY-1.TOP
** Interaction: TABLECONTACT-1
*Contact Pair, interaction=INTPROP-1, mechanical constraint=KINEMATIC, cpset=TABLECONTACT-1
TABLE-1.TABLE-1-TABLETOP, QUARTER-BATTERY-1.BOTTOM
** 
** OUTPUT REQUESTS
** 
*Restart, write, number interval=1, time marks=NO
** 
** FIELD OUTPUT: F-Output-1
** 
*Output, field, variable=PRESELECT
** 
** HISTORY OUTPUT: H-Output-2
** 
*Output, history, time interval=1
*Element Output, elset=QUARTER-BATTERY-1.CONTACTELEMENTS
MISES, PEEQ, S11, S12, S13, S22, S23, S33
** 
** HISTORY OUTPUT: H-Output-3
** 
*Node Output, nset=QUARTER-BATTERY-1.CONTACTNODES
U1, U2, U3
** 
** HISTORY OUTPUT: H-Output-4
** 
*Node Output, nset=H5-1.INDENTER
RF3, U3
** 
** HISTORY OUTPUT: H-Output-1
** 
*Output, history, variable=PRESELECT, time interval=1
*End Step

