*Heading
** Job name: H_50_validation Model name: H_50_newmesh
** Generated by: Abaqus/CAE 2024
*Preprint, echo=NO, model=NO, history=NO, contact=NO
**
** PARTS
**
*Part, name=H_50-1
*End Part
**  
*Part, name=QUARTER-BATTERY
*Node
      1,           0.,        20.75,   5.07000017
      2,   17.2999992,        20.75,   5.07000017
      3,   17.2999992,        32.75,   5.07000017
      4,           0.,        32.75,   5.07000017
      5,   17.2999992,        20.75,           0.
      6,   17.2999992,        32.75,           0.
      7,           0.,        32.75,           0.
      8,           0.,        20.75,           0.
      9,   29.2999992,        20.75,           0.
     10,   29.2999992,        20.75,   5.07000017
     11,   29.2999992,           0.,   5.07000017
     12,   29.2999992,           0.,           0.
     13,   17.2999992,           0.,   5.07000017
     14,   17.2999992,           0.,           0.
     15,           0.,           0.,   5.07000017
     16,           0.,           0.,           0.
     17,   29.2999992,        32.75,           0.
     18,   29.2999992,        32.75,   5.07000017
     19,   1.57272732,        20.75,   5.07000017
     20,   3.14545465,        20.75,   5.07000017
** ... 18124 like lines cut
*Element, type=C3D8R
    1,   188,  1572,  5860,  1166,     1,    19,   586,    96
    2,  1572,  1573,  5861,  5860,    19,    20,   587,   586
    3,  1573,  1574,  5862,  5861,    20,    21,   588,   587
    4,  1574,  1575,  5863,  5862,    21,    22,   589,   588
    5,  1575,  1576,  5864,  5863,    22,    23,   590,   589
    6,  1576,  1577,  5865,  5864,    23,    24,   591,   590
    7,  1577,  1578,  5866,  5865,    24,    25,   592,   591
    8,  1578,  1579,  5867,  5866,    25,    26,   593,   592
    9,  1579,  1580,  5868,  5867,    26,    27,   594,   593
   10,  1580,  1581,  5869,  5868,    27,    28,   595,   594
   11,  1581,   202,  1369,  5869,    28,     2,    29,   595
   12,  1166,  5860,  5870,  1167,    96,   586,   596,    95
   13,  5860,  5861,  5871,  5870,   586,   587,   597,   596
   14,  5861,  5862,  5872,  5871,   587,   588,   598,   597
   15,  5862,  5863,  5873,  5872,   588,   589,   599,   598
   16,  5863,  5864,  5874,  5873,   589,   590,   600,   599
   17,  5864,  5865,  5875,  5874,   590,   591,   601,   600
   18,  5865,  5866,  5876,  5875,   591,   592,   602,   601
   19,  5866,  5867,  5877,  5876,   592,   593,   603,   602
   20,  5867,  5868,  5878,  5877,   593,   594,   604,   603
** ... 15396 like lines cut
*Nset, nset=XZ_CUT
    3,    4,    6,    7,   17,   18,   58,   59,   60,   61,   62,   63,   64,   65,   66,   67
  136,  137,  138,  139,  140,  141,  142,  143,  144,  145,  175,  176,  177,  178,  179,  180
  181,  189,  190,  191,  192,  193,  194,  195,  492,  493,  494,  495,  496,  497,  498,  528
  529,  530,  531,  532,  533,  534,  535,  536,  537,  538,  539,  540,  541,  542,  543,  544
  545,  546,  547,  548,  549,  550,  551,  552,  553,  554,  555,  556,  557,  558,  559,  560
  561,  562,  563,  564,  565,  566,  567,  568,  569,  570,  571,  572,  573,  574,  575,  576
  577,  578,  579,  580,  581,  582,  583,  584,  585, 1642, 1643, 1644, 1645, 1646, 1647, 1648
 1649, 1650, 1651, 1652, 1653, 1654, 1655, 1656, 1657, 1658, 1659, 1660, 1661, 1662, 1663, 1664
 1665, 1666, 1667, 1668, 1669, 1670, 1671, 1672, 1673, 1674, 1675, 1676, 1677, 1678, 1679, 1680
 1681, 1682, 1683, 1684, 1685, 1686, 1687, 1688, 1689, 1690, 1691, 1692, 1693, 1694, 1695, 1696
 1697, 1698, 1699, 1700, 1701, 1702, 1703, 1704, 1705, 1706, 1707, 1708, 1709, 1710, 1711, 5657
 5658, 5659, 5660, 5661, 5662, 5663, 5664, 5665, 5666, 5667, 5668, 5669, 5670, 5671, 5672, 5673
 5674, 5675, 5676, 5677, 5678, 5679, 5680, 5681, 5682, 5683, 5684, 5685, 5686, 5687, 5688, 5689
 5690, 5691, 5692, 5693, 5694, 5695, 5696, 5697, 5698, 5699, 5700, 5701, 5702, 5703, 5704, 5705
 5706, 5707, 5708, 5709, 5710, 5711, 5712, 5713, 5714, 5715, 5716, 5717, 5718, 5719, 5720, 5721
 5722, 5723, 5724, 5725, 5726, 5727, 5728, 5729, 5730, 5731, 5732, 5733, 5734, 5735, 5736, 5737
 5738, 5739, 5740, 5741, 5742, 5743, 5744, 5745, 5746, 5747, 5748, 5749, 5750, 5751, 5752, 5753
 5754, 5755, 5756, 5757, 5758, 5759, 5760, 5761, 5762, 5763, 5764, 5765, 5766, 5767, 5768, 5769
 5770, 5771, 5772, 5773, 5774, 5775, 5776, 5777, 5778, 5779, 5780, 5781, 5782, 5783, 5784, 5785
 5786, 5787, 5788, 5789, 5790, 5791, 5792, 5793, 5794, 5795, 5796, 5797, 5798, 5799, 5800, 5801
** ... 4 like lines cut
*Elset, elset=XZ_CUT
   320,   321,   322,   323,   324,   325,   326,   327,   328,   329,   330,   650,   651,   652,   653,   654
   655,   656,   657,   658,   659,   660,   980,   981,   982,   983,   984,   985,   986,   987,   988,   989
   990,  1310,  1311,  1312,  1313,  1314,  1315,  1316,  1317,  1318,  1319,  1320,  1640,  1641,  1642,  1643
  1644,  1645,  1646,  1647,  1648,  1649,  1650,  1970,  1971,  1972,  1973,  1974,  1975,  1976,  1977,  1978
  1979,  1980,  2300,  2301,  2302,  2303,  2304,  2305,  2306,  2307,  2308,  2309,  2310,  2630,  2631,  2632
  2633,  2634,  2635,  2636,  2637,  2638,  2639,  2640,  8449,  8450,  8451,  8452,  8453,  8454,  8455,  8456
  8689,  8690,  8691,  8692,  8693,  8694,  8695,  8696,  8929,  8930,  8931,  8932,  8933,  8934,  8935,  8936
  9169,  9170,  9171,  9172,  9173,  9174,  9175,  9176,  9409,  9410,  9411,  9412,  9413,  9414,  9415,  9416
  9649,  9650,  9651,  9652,  9653,  9654,  9655,  9656,  9889,  9890,  9891,  9892,  9893,  9894,  9895,  9896
 10129, 10130, 10131, 10132, 10133, 10134, 10135, 10136, 10369, 10370, 10371, 10372, 10373, 10374, 10375, 10376
 10609, 10610, 10611, 10612, 10613, 10614, 10615, 10616, 10849, 10850, 10851, 10852, 10853, 10854, 10855, 10856
 11089, 11090, 11091, 11092, 11093, 11094, 11095, 11096, 11329, 11330, 11331, 11332, 11333, 11334, 11335, 11336
 11569, 11570, 11571, 11572, 11573, 11574, 11575, 11576, 11809, 11810, 11811, 11812, 11813, 11814, 11815, 11816
 12049, 12050, 12051, 12052, 12053, 12054, 12055, 12056, 12289, 12290, 12291, 12292, 12293, 12294, 12295, 12296
 12529, 12530, 12531, 12532, 12533, 12534, 12535, 12536, 12769, 12770, 12771, 12772, 12773, 12774, 12775, 12776
 13009, 13010, 13011, 13012, 13013, 13014, 13015, 13016, 13249, 13250, 13251, 13252, 13253, 13254, 13255, 13256
 13489, 13490, 13491, 13492, 13493, 13494, 13495, 13496, 13729, 13730, 13731, 13732, 13733, 13734, 13735, 13736
 13969, 13970, 13971, 13972, 13973, 13974, 13975, 13976, 14209, 14210, 14211, 14212, 14213, 14214, 14215, 14216
 14449, 14450, 14451, 14452, 14453, 14454, 14455, 14456, 14689, 14690, 14691, 14692, 14693, 14694, 14695, 14696
 14929, 14930, 14931, 14932, 14933, 14934, 14935, 14936, 15169, 15170, 15171, 15172, 15173, 15174, 15175, 15176
 15409, 15410, 15411, 15412, 15413, 15414, 15415, 15416
*Nset, nset=ZY_CUT
    9,   10,   11,   12,   17,   18,  203,  204,  205,  206,  207,  208,  209,  210,  211,  212
  213,  214,  215,  216,  217,  218,  219,  220,  221,  222,  223,  224,  225,  226,  227,  228
  229,  230,  231,  232,  233,  234,  235,  236,  237,  238,  239,  240,  241,  242,  243,  244
  245,  246,  247,  248,  463,  464,  465,  466,  467,  468,  469,  470,  471,  472,  473,  474
  475,  476,  477,  478,  479,  480,  481,  482,  483,  484,  485,  486,  487,  488,  489,  490
  491,  492,  493,  494,  495,  496,  497,  498,  499,  500,  501,  502,  503,  504,  505,  506
  507,  508,  509,  510,  511,  512,  513,  514,  515,  516,  517,  518,  519,  520,  521,  522
  523,  524,  525,  526,  527, 1712, 1713, 1714, 1715, 1716, 1717, 1718, 1719, 1720, 1721, 1722
 1723, 1724, 1725, 1726, 1727, 1728, 1729, 1730, 1731, 1732, 1733, 1734, 1735, 1736, 1737, 1738
 1739, 1740, 1741, 1742, 1743, 1744, 1745, 1746, 1747, 1748, 1749, 1750, 1751, 1752, 1753, 1754
 1755, 1756, 1757, 1758, 1759, 1760, 1761, 1762, 1763, 1764, 1765, 1766, 1767, 1768, 1769, 1770
 1771, 1772, 1773, 1774, 1775, 1776, 1777, 1778, 1779, 1780, 1781, 1782, 1783, 1784, 1785, 1786
 1787, 1788, 1789, 1790, 1791, 1792, 1793, 1794, 1795, 1796, 1797, 1798, 1799, 1800, 1801, 1802
 1803, 1804, 1805, 1806, 1807, 1808, 1809, 1810, 1811, 1812, 1813, 1814, 1815, 1816, 1817, 1818
 1819, 1820, 1821, 1822, 1823, 3772, 3773, 3774, 3775, 3776, 3777, 3778, 3779, 3780, 3781, 3782
 3783, 3784, 3785, 3786, 3787, 3788, 3789, 3790, 3791, 3792, 3793, 3794, 3795, 3796, 3797, 3798
 3799, 3800, 3801, 3802, 3803, 3804, 3805, 3806, 3807, 3808, 3809, 3810, 3811, 3812, 3813, 3814
 3815, 3816, 3817, 3818, 3819, 3820, 3821, 3822, 3823, 3824, 3825, 3826, 3827, 3828, 3829, 3830
 3831, 3832, 3833, 3834, 3835, 3836, 3837, 3838, 3839, 3840, 3841, 3842, 3843, 3844, 3845, 3846
 3847, 3848, 3849, 3850, 3851, 3852, 3853, 3854, 3855, 3856, 3857, 3858, 3859, 3860, 3861, 3862
** ... 7 like lines cut
*Elset, elset=ZY_CUT
 2641, 2642, 2643, 2644, 2645, 2646, 2647, 2648, 2649, 2650, 2651, 2652, 2653, 2654, 2655, 2656
 2657, 2658, 2659, 2660, 2661, 2662, 2663, 2664, 2665, 2666, 2667, 2668, 2669, 2670, 2671, 2672
 2673, 2674, 2675, 2676, 2677, 2678, 2679, 2680, 2681, 2682, 2683, 2684, 2685, 2686, 2687, 2688
 2689, 2690, 2691, 2692, 2693, 2694, 2695, 2696, 2697, 2698, 2699, 2700, 2701, 2702, 2703, 2704
 2705, 2706, 2707, 2708, 2709, 2710, 2711, 2712, 2713, 2714, 2715, 2716, 2717, 2718, 2719, 2720
 2721, 2722, 2723, 2724, 2725, 2726, 2727, 2728, 2729, 2730, 2731, 2732, 2733, 2734, 2735, 2736
 2737, 2738, 2739, 2740, 2741, 2742, 2743, 2744, 2745, 2746, 2747, 2748, 2749, 2750, 2751, 2752
 2753, 2754, 2755, 2756, 2757, 2758, 2759, 2760, 2761, 2762, 2763, 2764, 2765, 2766, 2767, 2768
 2769, 2770, 2771, 2772, 2773, 2774, 2775, 2776, 8217, 8218, 8219, 8220, 8221, 8222, 8223, 8224
 8225, 8226, 8227, 8228, 8229, 8230, 8231, 8232, 8233, 8234, 8235, 8236, 8237, 8238, 8239, 8240
 8241, 8242, 8243, 8244, 8245, 8246, 8247, 8248, 8249, 8250, 8251, 8252, 8253, 8254, 8255, 8256
 8257, 8258, 8259, 8260, 8261, 8262, 8263, 8264, 8265, 8266, 8267, 8268, 8269, 8270, 8271, 8272
 8273, 8274, 8275, 8276, 8277, 8278, 8279, 8280, 8281, 8282, 8283, 8284, 8285, 8286, 8287, 8288
 8289, 8290, 8291, 8292, 8293, 8294, 8295, 8296, 8297, 8298, 8299, 8300, 8301, 8302, 8303, 8304
 8305, 8306, 8307, 8308, 8309, 8310, 8311, 8312, 8313, 8314, 8315, 8316, 8317, 8318, 8319, 8320
 8321, 8322, 8323, 8324, 8325, 8326, 8327, 8328, 8329, 8330, 8331, 8332, 8333, 8334, 8335, 8336
 8337, 8338, 8339, 8340, 8341, 8342, 8343, 8344, 8345, 8346, 8347, 8348, 8349, 8350, 8351, 8352
 8353, 8354, 8355, 8356, 8357, 8358, 8359, 8360, 8361, 8362, 8363, 8364, 8365, 8366, 8367, 8368
 8369, 8370, 8371, 8372, 8373, 8374, 8375, 8376, 8377, 8378, 8379, 8380, 8381, 8382, 8383, 8384
 8385, 8386, 8387, 8388, 8389, 8390, 8391, 8392, 8393, 8394, 8395, 8396, 8397, 8398, 8399, 8400
** ... 4 like lines cut
*Elset, elset=CONTACTELEMENTS, generate
  8217,  15409,      8
*Nset, nset=CONTACTNODES
    2,    3,   10,   18,   29,   30,   31,   32,   33,   34,   35,   36,   37,   38,   39,   40
   41,   42,   43,   44,   45,   46,   47,   48,   49,   50,   51,   52,   53,   54,   55,   56
   57,  375,  376,  377,  378,  379,  380,  381,  382,  383,  384,  385,  386,  387,  388,  389
  390,  391,  392,  393,  394,  395,  396,  397,  398,  399,  400,  401,  402,  403,  499,  500
  501,  502,  503,  504,  505,  506,  507,  508,  509,  510,  511,  512,  513,  514,  515,  516
  517,  518,  519,  520,  521,  522,  523,  524,  525,  526,  527,  528,  529,  530,  531,  532
  533,  534,  535,  536,  537,  538,  539,  540,  541,  542,  543,  544,  545,  546,  547,  548
  549,  550,  551,  552,  553,  554,  555,  556, 3975, 3976, 3977, 3978, 3979, 3980, 3981, 3982
 3983, 3984, 3985, 3986, 3987, 3988, 3989, 3990, 3991, 3992, 3993, 3994, 3995, 3996, 3997, 3998
 3999, 4000, 4001, 4002, 4003, 4004, 4005, 4006, 4007, 4008, 4009, 4010, 4011, 4012, 4013, 4014
 4015, 4016, 4017, 4018, 4019, 4020, 4021, 4022, 4023, 4024, 4025, 4026, 4027, 4028, 4029, 4030
 4031, 4032, 4033, 4034, 4035, 4036, 4037, 4038, 4039, 4040, 4041, 4042, 4043, 4044, 4045, 4046
 4047, 4048, 4049, 4050, 4051, 4052, 4053, 4054, 4055, 4056, 4057, 4058, 4059, 4060, 4061, 4062
 4063, 4064, 4065, 4066, 4067, 4068, 4069, 4070, 4071, 4072, 4073, 4074, 4075, 4076, 4077, 4078
 4079, 4080, 4081, 4082, 4083, 4084, 4085, 4086, 4087, 4088, 4089, 4090, 4091, 4092, 4093, 4094
 4095, 4096, 4097, 4098, 4099, 4100, 4101, 4102, 4103, 4104, 4105, 4106, 4107, 4108, 4109, 4110
 4111, 4112, 4113, 4114, 4115, 4116, 4117, 4118, 4119, 4120, 4121, 4122, 4123, 4124, 4125, 4126
 4127, 4128, 4129, 4130, 4131, 4132, 4133, 4134, 4135, 4136, 4137, 4138, 4139, 4140, 4141, 4142
 4143, 4144, 4145, 4146, 4147, 4148, 4149, 4150, 4151, 4152, 4153, 4154, 4155, 4156, 4157, 4158
 4159, 4160, 4161, 4162, 4163, 4164, 4165, 4166, 4167, 4168, 4169, 4170, 4171, 4172, 4173, 4174
** ... 41 like lines cut
*Elset, elset=_TOP_S2, internal, generate
   1,  330,    1
*Elset, elset=_TOP_S4, internal, generate
 2648,  8216,     8
*Elset, elset=_TOP_S6, internal, generate
  8217,  15409,      8
*Elset, elset=_BOTTOM_S6, internal, generate
 2641,  8209,     8
*Elset, elset=_BOTTOM_S4, internal, generate
  8224,  15416,      8
*Elset, elset=_BOTTOM_S1, internal, generate
 2311,  2640,     1
*Elset, elset=QUARTER-BATTERY, generate
     1,  15416,      1
*Elset, elset=_TOP_S2_1, internal, generate
   1,  330,    1
*Elset, elset=_TOP_S4_1, internal, generate
 2648,  8216,     8
*Elset, elset=_TOP_S6_1, internal, generate
  8217,  15409,      8
*Elset, elset="_cutoff sides (symmetry)_S2", internal
 2641, 2642, 2643, 2644, 2645, 2646, 2647, 2648, 2649, 2650, 2651, 2652, 2653, 2654, 2655, 2656
 2657, 2658, 2659, 2660, 2661, 2662, 2663, 2664, 2665, 2666, 2667, 2668, 2669, 2670, 2671, 2672
 2673, 2674, 2675, 2676, 2677, 2678, 2679, 2680, 2681, 2682, 2683, 2684, 2685, 2686, 2687, 2688
 2689, 2690, 2691, 2692, 2693, 2694, 2695, 2696, 2697, 2698, 2699, 2700, 2701, 2702, 2703, 2704
 2705, 2706, 2707, 2708, 2709, 2710, 2711, 2712, 2713, 2714, 2715, 2716, 2717, 2718, 2719, 2720
 2721, 2722, 2723, 2724, 2725, 2726, 2727, 2728, 2729, 2730, 2731, 2732, 2733, 2734, 2735, 2736
 2737, 2738, 2739, 2740, 2741, 2742, 2743, 2744, 2745, 2746, 2747, 2748, 2749, 2750, 2751, 2752
 2753, 2754, 2755, 2756, 2757, 2758, 2759, 2760, 2761, 2762, 2763, 2764, 2765, 2766, 2767, 2768
 2769, 2770, 2771, 2772, 2773, 2774, 2775, 2776, 8217, 8218, 8219, 8220, 8221, 8222, 8223, 8224
 8225, 8226, 8227, 8228, 8229, 8230, 8231, 8232, 8233, 8234, 8235, 8236, 8237, 8238, 8239, 8240
 8241, 8242, 8243, 8244, 8245, 8246, 8247, 8248, 8249, 8250, 8251, 8252, 8253, 8254, 8255, 8256
 8257, 8258, 8259, 8260, 8261, 8262, 8263, 8264, 8265, 8266, 8267, 8268, 8269, 8270, 8271, 8272
 8273, 8274, 8275, 8276, 8277, 8278, 8279, 8280, 8281, 8282, 8283, 8284, 8285, 8286, 8287, 8288
 8289, 8290, 8291, 8292, 8293, 8294, 8295, 8296, 8297, 8298, 8299, 8300, 8301, 8302, 8303, 8304
 8305, 8306, 8307, 8308, 8309, 8310, 8311, 8312, 8313, 8314, 8315, 8316, 8317, 8318, 8319, 8320
 8321, 8322, 8323, 8324, 8325, 8326, 8327, 8328, 8329, 8330, 8331, 8332, 8333, 8334, 8335, 8336
 8337, 8338, 8339, 8340, 8341, 8342, 8343, 8344, 8345, 8346, 8347, 8348, 8349, 8350, 8351, 8352
 8353, 8354, 8355, 8356, 8357, 8358, 8359, 8360, 8361, 8362, 8363, 8364, 8365, 8366, 8367, 8368
 8369, 8370, 8371, 8372, 8373, 8374, 8375, 8376, 8377, 8378, 8379, 8380, 8381, 8382, 8383, 8384
 8385, 8386, 8387, 8388, 8389, 8390, 8391, 8392, 8393, 8394, 8395, 8396, 8397, 8398, 8399, 8400
** ... 4 like lines cut
*Elset, elset="_cutoff sides (symmetry)_S5", internal
   320,   321,   322,   323,   324,   325,   326,   327,   328,   329,   330,   650,   651,   652,   653,   654
   655,   656,   657,   658,   659,   660,   980,   981,   982,   983,   984,   985,   986,   987,   988,   989
   990,  1310,  1311,  1312,  1313,  1314,  1315,  1316,  1317,  1318,  1319,  1320,  1640,  1641,  1642,  1643
  1644,  1645,  1646,  1647,  1648,  1649,  1650,  1970,  1971,  1972,  1973,  1974,  1975,  1976,  1977,  1978
  1979,  1980,  2300,  2301,  2302,  2303,  2304,  2305,  2306,  2307,  2308,  2309,  2310,  2630,  2631,  2632
  2633,  2634,  2635,  2636,  2637,  2638,  2639,  2640,  8449,  8450,  8451,  8452,  8453,  8454,  8455,  8456
  8689,  8690,  8691,  8692,  8693,  8694,  8695,  8696,  8929,  8930,  8931,  8932,  8933,  8934,  8935,  8936
  9169,  9170,  9171,  9172,  9173,  9174,  9175,  9176,  9409,  9410,  9411,  9412,  9413,  9414,  9415,  9416
  9649,  9650,  9651,  9652,  9653,  9654,  9655,  9656,  9889,  9890,  9891,  9892,  9893,  9894,  9895,  9896
 10129, 10130, 10131, 10132, 10133, 10134, 10135, 10136, 10369, 10370, 10371, 10372, 10373, 10374, 10375, 10376
 10609, 10610, 10611, 10612, 10613, 10614, 10615, 10616, 10849, 10850, 10851, 10852, 10853, 10854, 10855, 10856
 11089, 11090, 11091, 11092, 11093, 11094, 11095, 11096, 11329, 11330, 11331, 11332, 11333, 11334, 11335, 11336
 11569, 11570, 11571, 11572, 11573, 11574, 11575, 11576, 11809, 11810, 11811, 11812, 11813, 11814, 11815, 11816
 12049, 12050, 12051, 12052, 12053, 12054, 12055, 12056, 12289, 12290, 12291, 12292, 12293, 12294, 12295, 12296
 12529, 12530, 12531, 12532, 12533, 12534, 12535, 12536, 12769, 12770, 12771, 12772, 12773, 12774, 12775, 12776
 13009, 13010, 13011, 13012, 13013, 13014, 13015, 13016, 13249, 13250, 13251, 13252, 13253, 13254, 13255, 13256
 13489, 13490, 13491, 13492, 13493, 13494, 13495, 13496, 13729, 13730, 13731, 13732, 13733, 13734, 13735, 13736
 13969, 13970, 13971, 13972, 13973, 13974, 13975, 13976, 14209, 14210, 14211, 14212, 14213, 14214, 14215, 14216
 14449, 14450, 14451, 14452, 14453, 14454, 14455, 14456, 14689, 14690, 14691, 14692, 14693, 14694, 14695, 14696
 14929, 14930, 14931, 14932, 14933, 14934, 14935, 14936, 15169, 15170, 15171, 15172, 15173, 15174, 15175, 15176
 15409, 15410, 15411, 15412, 15413, 15414, 15415, 15416
*Elset, elset="_Edges (open)_S6", internal, generate
    1,  2630,    11
*Elset, elset="_Edges (open)_S5", internal
 2769, 2770, 2771, 2772, 2773, 2774, 2775, 2776, 2905, 2906, 2907, 2908, 2909, 2910, 2911, 2912
 3041, 3042, 3043, 3044, 3045, 3046, 3047, 3048, 3177, 3178, 3179, 3180, 3181, 3182, 3183, 3184
 3313, 3314, 3315, 3316, 3317, 3318, 3319, 3320, 3449, 3450, 3451, 3452, 3453, 3454, 3455, 3456
 3585, 3586, 3587, 3588, 3589, 3590, 3591, 3592, 3721, 3722, 3723, 3724, 3725, 3726, 3727, 3728
 3857, 3858, 3859, 3860, 3861, 3862, 3863, 3864, 3993, 3994, 3995, 3996, 3997, 3998, 3999, 4000
 4129, 4130, 4131, 4132, 4133, 4134, 4135, 4136, 4265, 4266, 4267, 4268, 4269, 4270, 4271, 4272
 4401, 4402, 4403, 4404, 4405, 4406, 4407, 4408, 4537, 4538, 4539, 4540, 4541, 4542, 4543, 4544
 4673, 4674, 4675, 4676, 4677, 4678, 4679, 4680, 4809, 4810, 4811, 4812, 4813, 4814, 4815, 4816
 4945, 4946, 4947, 4948, 4949, 4950, 4951, 4952, 5081, 5082, 5083, 5084, 5085, 5086, 5087, 5088
 5217, 5218, 5219, 5220, 5221, 5222, 5223, 5224, 5353, 5354, 5355, 5356, 5357, 5358, 5359, 5360
 5489, 5490, 5491, 5492, 5493, 5494, 5495, 5496, 5625, 5626, 5627, 5628, 5629, 5630, 5631, 5632
 5761, 5762, 5763, 5764, 5765, 5766, 5767, 5768, 5897, 5898, 5899, 5900, 5901, 5902, 5903, 5904
 6033, 6034, 6035, 6036, 6037, 6038, 6039, 6040, 6169, 6170, 6171, 6172, 6173, 6174, 6175, 6176
 6305, 6306, 6307, 6308, 6309, 6310, 6311, 6312, 6441, 6442, 6443, 6444, 6445, 6446, 6447, 6448
 6577, 6578, 6579, 6580, 6581, 6582, 6583, 6584, 6713, 6714, 6715, 6716, 6717, 6718, 6719, 6720
 6801, 6802, 6803, 6804, 6805, 6806, 6807, 6808, 6889, 6890, 6891, 6892, 6893, 6894, 6895, 6896
 6977, 6978, 6979, 6980, 6981, 6982, 6983, 6984, 7065, 7066, 7067, 7068, 7069, 7070, 7071, 7072
 7153, 7154, 7155, 7156, 7157, 7158, 7159, 7160, 7241, 7242, 7243, 7244, 7245, 7246, 7247, 7248
 7329, 7330, 7331, 7332, 7333, 7334, 7335, 7336, 7417, 7418, 7419, 7420, 7421, 7422, 7423, 7424
 7505, 7506, 7507, 7508, 7509, 7510, 7511, 7512, 7593, 7594, 7595, 7596, 7597, 7598, 7599, 7600
** ... 4 like lines cut
*Elset, elset="_Edges (open)_S2", internal, generate
 6721,  6808,     1
*Elset, elset=_BOTTOM_S6_1, internal, generate
 2641,  8209,     8
*Elset, elset=_BOTTOM_S4_1, internal, generate
  8224,  15416,      8
*Elset, elset=_BOTTOM_S1_1, internal, generate
 2311,  2640,     1
*Elset, elset=_TOP_S2_2, internal, generate
   1,  330,    1
*Elset, elset=_TOP_S4_2, internal, generate
 2648,  8216,     8
*Elset, elset=_TOP_S6_2, internal, generate
  8217,  15409,      8
*Surface, type=ELEMENT, name=TOP
_TOP_S2_2, S2
_TOP_S4_2, S4
_TOP_S6_2, S6
*Elset, elset="_cutoff sides (symmetry)_S2", internal
 2641, 2642, 2643, 2644, 2645, 2646, 2647, 2648, 2649, 2650, 2651, 2652, 2653, 2654, 2655, 2656
 2657, 2658, 2659, 2660, 2661, 2662, 2663, 2664, 2665, 2666, 2667, 2668, 2669, 2670, 2671, 2672
 2673, 2674, 2675, 2676, 2677, 2678, 2679, 2680, 2681, 2682, 2683, 2684, 2685, 2686, 2687, 2688
 2689, 2690, 2691, 2692, 2693, 2694, 2695, 2696, 2697, 2698, 2699, 2700, 2701, 2702, 2703, 2704
 2705, 2706, 2707, 2708, 2709, 2710, 2711, 2712, 2713, 2714, 2715, 2716, 2717, 2718, 2719, 2720
 2721, 2722, 2723, 2724, 2725, 2726, 2727, 2728, 2729, 2730, 2731, 2732, 2733, 2734, 2735, 2736
 2737, 2738, 2739, 2740, 2741, 2742, 2743, 2744, 2745, 2746, 2747, 2748, 2749, 2750, 2751, 2752
 2753, 2754, 2755, 2756, 2757, 2758, 2759, 2760, 2761, 2762, 2763, 2764, 2765, 2766, 2767, 2768
 2769, 2770, 2771, 2772, 2773, 2774, 2775, 2776, 8217, 8218, 8219, 8220, 8221, 8222, 8223, 8224
 8225, 8226, 8227, 8228, 8229, 8230, 8231, 8232, 8233, 8234, 8235, 8236, 8237, 8238, 8239, 8240
 8241, 8242, 8243, 8244, 8245, 8246, 8247, 8248, 8249, 8250, 8251, 8252, 8253, 8254, 8255, 8256
 8257, 8258, 8259, 8260, 8261, 8262, 8263, 8264, 8265, 8266, 8267, 8268, 8269, 8270, 8271, 8272
 8273, 8274, 8275, 8276, 8277, 8278, 8279, 8280, 8281, 8282, 8283, 8284, 8285, 8286, 8287, 8288
 8289, 8290, 8291, 8292, 8293, 8294, 8295, 8296, 8297, 8298, 8299, 8300, 8301, 8302, 8303, 8304
 8305, 8306, 8307, 8308, 8309, 8310, 8311, 8312, 8313, 8314, 8315, 8316, 8317, 8318, 8319, 8320
 8321, 8322, 8323, 8324, 8325, 8326, 8327, 8328, 8329, 8330, 8331, 8332, 8333, 8334, 8335, 8336
 8337, 8338, 8339, 8340, 8341, 8342, 8343, 8344, 8345, 8346, 8347, 8348, 8349, 8350, 8351, 8352
 8353, 8354, 8355, 8356, 8357, 8358, 8359, 8360, 8361, 8362, 8363, 8364, 8365, 8366, 8367, 8368
 8369, 8370, 8371, 8372, 8373, 8374, 8375, 8376, 8377, 8378, 8379, 8380, 8381, 8382, 8383, 8384
 8385, 8386, 8387, 8388, 8389, 8390, 8391, 8392, 8393, 8394, 8395, 8396, 8397, 8398, 8399, 8400
** ... 4 like lines cut
*Elset, elset="_cutoff sides (symmetry)_S5", internal
   320,   321,   322,   323,   324,   325,   326,   327,   328,   329,   330,   650,   651,   652,   653,   654
   655,   656,   657,   658,   659,   660,   980,   981,   982,   983,   984,   985,   986,   987,   988,   989
   990,  1310,  1311,  1312,  1313,  1314,  1315,  1316,  1317,  1318,  1319,  1320,  1640,  1641,  1642,  1643
  1644,  1645,  1646,  1647,  1648,  1649,  1650,  1970,  1971,  1972,  1973,  1974,  1975,  1976,  1977,  1978
  1979,  1980,  2300,  2301,  2302,  2303,  2304,  2305,  2306,  2307,  2308,  2309,  2310,  2630,  2631,  2632
  2633,  2634,  2635,  2636,  2637,  2638,  2639,  2640,  8449,  8450,  8451,  8452,  8453,  8454,  8455,  8456
  8689,  8690,  8691,  8692,  8693,  8694,  8695,  8696,  8929,  8930,  8931,  8932,  8933,  8934,  8935,  8936
  9169,  9170,  9171,  9172,  9173,  9174,  9175,  9176,  9409,  9410,  9411,  9412,  9413,  9414,  9415,  9416
  9649,  9650,  9651,  9652,  9653,  9654,  9655,  9656,  9889,  9890,  9891,  9892,  9893,  9894,  9895,  9896
 10129, 10130, 10131, 10132, 10133, 10134, 10135, 10136, 10369, 10370, 10371, 10372, 10373, 10374, 10375, 10376
 10609, 10610, 10611, 10612, 10613, 10614, 10615, 10616, 10849, 10850, 10851, 10852, 10853, 10854, 10855, 10856
 11089, 11090, 11091, 11092, 11093, 11094, 11095, 11096, 11329, 11330, 11331, 11332, 11333, 11334, 11335, 11336
 11569, 11570, 11571, 11572, 11573, 11574, 11575, 11576, 11809, 11810, 11811, 11812, 11813, 11814, 11815, 11816
 12049, 12050, 12051, 12052, 12053, 12054, 12055, 12056, 12289, 12290, 12291, 12292, 12293, 12294, 12295, 12296
 12529, 12530, 12531, 12532, 12533, 12534, 12535, 12536, 12769, 12770, 12771, 12772, 12773, 12774, 12775, 12776
 13009, 13010, 13011, 13012, 13013, 13014, 13015, 13016, 13249, 13250, 13251, 13252, 13253, 13254, 13255, 13256
 13489, 13490, 13491, 13492, 13493, 13494, 13495, 13496, 13729, 13730, 13731, 13732, 13733, 13734, 13735, 13736
 13969, 13970, 13971, 13972, 13973, 13974, 13975, 13976, 14209, 14210, 14211, 14212, 14213, 14214, 14215, 14216
 14449, 14450, 14451, 14452, 14453, 14454, 14455, 14456, 14689, 14690, 14691, 14692, 14693, 14694, 14695, 14696
 14929, 14930, 14931, 14932, 14933, 14934, 14935, 14936, 15169, 15170, 15171, 15172, 15173, 15174, 15175, 15176
 15409, 15410, 15411, 15412, 15413, 15414, 15415, 15416
*Surface, type=ELEMENT, name="cutoff sides (symmetry)"
"_cutoff sides (symmetry)_S2", S2
"_cutoff sides (symmetry)_S5", S5
*Elset, elset="_Edges (open)_S6", internal, generate
    1,  2630,    11
*Elset, elset="_Edges (open)_S5", internal
 2769, 2770, 2771, 2772, 2773, 2774, 2775, 2776, 2905, 2906, 2907, 2908, 2909, 2910, 2911, 2912
 3041, 3042, 3043, 3044, 3045, 3046, 3047, 3048, 3177, 3178, 3179, 3180, 3181, 3182, 3183, 3184
 3313, 3314, 3315, 3316, 3317, 3318, 3319, 3320, 3449, 3450, 3451, 3452, 3453, 3454, 3455, 3456
 3585, 3586, 3587, 3588, 3589, 3590, 3591, 3592, 3721, 3722, 3723, 3724, 3725, 3726, 3727, 3728
 3857, 3858, 3859, 3860, 3861, 3862, 3863, 3864, 3993, 3994, 3995, 3996, 3997, 3998, 3999, 4000
 4129, 4130, 4131, 4132, 4133, 4134, 4135, 4136, 4265, 4266, 4267, 4268, 4269, 4270, 4271, 4272
 4401, 4402, 4403, 4404, 4405, 4406, 4407, 4408, 4537, 4538, 4539, 4540, 4541, 4542, 4543, 4544
 4673, 4674, 4675, 4676, 4677, 4678, 4679, 4680, 4809, 4810, 4811, 4812, 4813, 4814, 4815, 4816
 4945, 4946, 4947, 4948, 4949, 4950, 4951, 4952, 5081, 5082, 5083, 5084, 5085, 5086, 5087, 5088
 5217, 5218, 5219, 5220, 5221, 5222, 5223, 5224, 5353, 5354, 5355, 5356, 5357, 5358, 5359, 5360
 5489, 5490, 5491, 5492, 5493, 5494, 5495, 5496, 5625, 5626, 5627, 5628, 5629, 5630, 5631, 5632
 5761, 5762, 5763, 5764, 5765, 5766, 5767, 5768, 5897, 5898, 5899, 5900, 5901, 5902, 5903, 5904
 6033, 6034, 6035, 6036, 6037, 6038, 6039, 6040, 6169, 6170, 6171, 6172, 6173, 6174, 6175, 6176
 6305, 6306, 6307, 6308, 6309, 6310, 6311, 6312, 6441, 6442, 6443, 6444, 6445, 6446, 6447, 6448
 6577, 6578, 6579, 6580, 6581, 6582, 6583, 6584, 6713, 6714, 6715, 6716, 6717, 6718, 6719, 6720
 6801, 6802, 6803, 6804, 6805, 6806, 6807, 6808, 6889, 6890, 6891, 6892, 6893, 6894, 6895, 6896
 6977, 6978, 6979, 6980, 6981, 6982, 6983, 6984, 7065, 7066, 7067, 7068, 7069, 7070, 7071, 7072
 7153, 7154, 7155, 7156, 7157, 7158, 7159, 7160, 7241, 7242, 7243, 7244, 7245, 7246, 7247, 7248
 7329, 7330, 7331, 7332, 7333, 7334, 7335, 7336, 7417, 7418, 7419, 7420, 7421, 7422, 7423, 7424
 7505, 7506, 7507, 7508, 7509, 7510, 7511, 7512, 7593, 7594, 7595, 7596, 7597, 7598, 7599, 7600
** ... 4 like lines cut
*Elset, elset="_Edges (open)_S2", internal, generate
 6721,  6808,     1
*Surface, type=ELEMENT, name="Edges (open)"
"_Edges (open)_S6", S6
"_Edges (open)_S5", S5
"_Edges (open)_S2", S2
*Elset, elset=_BOTTOM_S6_2, internal, generate
 2641,  8209,     8
*Elset, elset=_BOTTOM_S4_2, internal, generate
  8224,  15416,      8
*Elset, elset=_BOTTOM_S1_2, internal, generate
 2311,  2640,     1
*Surface, type=ELEMENT, name=BOTTOM
_BOTTOM_S6_2, S6
_BOTTOM_S4_2, S4
_BOTTOM_S1_2, S1
** Section: Section-1-QUARTER-BATTERY
*Solid Section, elset=QUARTER-BATTERY, material=BATTERY
,
*End Part
**  
*Part, name=TABLE-1
*End Part
**  
**
** ASSEMBLY
**
*Assembly, name=Assembly
**  
*Instance, name=QUARTER-BATTERY-1, part=QUARTER-BATTERY
*End Instance
**  
*Instance, name=TABLE-1, part=TABLE-1
2.64633920112373e-14,           0., -6.71537740641416e-22
2.64633920112373e-14,           0., -6.71537740641416e-22, 2.64633920112373e-14, -1.00000001268805, -6.71537740641416e-22, 89.9999992730282
*Node
      1,           0.,         67.5,           0.
*Nset, nset=TABLE-1-RefPt_, internal
 1,
*Nset, nset=TABLE-1-REFPT_, internal
 1,
*Nset, nset=TABLE
 1,
*Surface, type=CYLINDER, name=TABLE-1-TABLE-1-TABLE-1-TABLE-1-TABLETOP
START,           0.,         67.5
 LINE,           0.,        -32.5
*End Instance
**  
*Instance, name=H_50-1, part=H_50-1
   29.299999,        32.75,        30.17
   29.299999,        32.75,        30.17, 30.2999990126881,        32.75,        30.17, 89.9999992730282
*Node
      1, 1.53080845e-15,         -25.,           0.
*Nset, nset=H_50-1-REFPT_, internal
 1,
*Nset, nset=H_50
 1,
*Surface, type=REVOLUTION, name=H_50-1-H_50-1-OUTSIDE
START,           0.,           0.
 LINE,          25.,           0.
 CIRCL,           0.,         -25.,           0.,           0.
*End Instance
**  
*Nset, nset=BOTTOM, instance=QUARTER-BATTERY-1
    5,    6,    7,    8,    9,   12,   14,   16,   17,   83,   84,   85,   86,   87,   88,   89
   90,   91,   92,   93,   94,   95,   96,   97,   98,   99,  100,  101,  102,  103,  104,  105
  106,  107,  108,  109,  110,  111,  112,  113,  114,  115,  116,  117,  118,  119,  120,  121
  122,  123,  124,  125,  126,  127,  128,  129,  130,  131,  132,  133,  134,  135,  136,  137
  138,  139,  140,  141,  142,  143,  144,  145,  146,  215,  216,  217,  218,  219,  220,  221
  222,  223,  224,  225,  226,  227,  228,  229,  230,  231,  232,  233,  234,  235,  236,  237
  238,  239,  240,  274,  275,  276,  277,  278,  279,  280,  281,  282,  283,  284,  285,  286
  287,  288,  289,  290,  291,  292,  293,  294,  295,  296,  297,  298,  299,  300,  301,  302
  303,  304,  305,  306,  307,  308,  309,  310,  311,  312,  313,  314,  315,  316,  317,  318
  319,  320,  321,  322,  323,  324,  325,  326,  327,  381,  382,  383,  384,  385,  386,  387
  388,  389,  390,  391,  392,  393,  394,  395,  396,  397,  398,  399,  400,  401,  402,  403
  404,  405,  406,  407,  408,  409,  410,  411,  412,  413,  414,  415,  416,  417,  418,  419
  420,  421,  422,  423,  424,  451,  452,  453,  454,  455,  456,  457,  458,  459,  460,  461
  462,  463,  464,  500,  501,  502,  503,  504,  505,  506,  507,  508,  509,  510,  511,  512
  513,  766,  767,  768,  769,  770,  771,  772,  773,  774,  775,  776,  777,  778,  779,  780
  781,  782,  783,  784,  785,  786,  787,  788,  789,  790,  791,  792,  793,  794,  795,  796
  797,  798,  799,  800,  801,  802,  803,  804,  805,  806,  807,  808,  809,  810,  811,  812
  813,  814,  815,  816,  817,  818,  819,  820,  821,  822,  823,  824,  825,  826,  827,  828
  829,  830,  831,  832,  833,  834,  835,  836,  837,  838,  839,  840,  841,  842,  843,  844
  845,  846,  847,  848,  849,  850,  851,  852,  853,  854,  855,  856,  857,  858,  859,  860
** ... 75 like lines cut
*Elset, elset=BOTTOM, instance=QUARTER-BATTERY-1
  1996,  1997,  1998,  1999,  2000,  2001,  2002,  2003,  2004,  2005,  2006,  2007,  2008,  2009,  2010,  2011
  2012,  2013,  2014,  2015,  2016,  2017,  2018,  2019,  2020,  2021,  2022,  2023,  2024,  2025,  2026,  2027
  2028,  2029,  2030,  2031,  2032,  2033,  2034,  2035,  2036,  2037,  2038,  2039,  2040,  2041,  2042,  2043
  2044,  2045,  2046,  2047,  2048,  2049,  2050,  2051,  2052,  2053,  2054,  2055,  2056,  2057,  2058,  2059
  2060,  2061,  2062,  2063,  2064,  2065,  2066,  2067,  2068,  2069,  2070,  2071,  2072,  2073,  2074,  2075
  2076,  2077,  2078,  2079,  2080,  2081,  2082,  2083,  2084,  2085,  2086,  2087,  2088,  2089,  2090,  2091
  2092,  2093,  2094,  2095,  2096,  2097,  2098,  2099,  2100,  2101,  2102,  2103,  2104,  2105,  2106,  2107
  2108,  2109,  2110,  2111,  2112,  2113,  2114,  2115,  2116,  2117,  2118,  2119,  2120,  2121,  2122,  2123
  2124,  2125,  2126,  2127,  2128,  2129,  2130,  2131,  2132,  2133,  2134,  2135,  2136,  2137,  2138,  2139
  2140,  2141,  2142,  2143,  2144,  2145,  2146,  2147,  2148,  2149,  2150,  2151,  2152,  2153,  2154,  2155
  2156,  2157,  2158,  2159,  2160,  2161,  2162,  2163,  2164,  2165,  2166,  2167,  2168,  2169,  2170,  2171
  2172,  2173,  2174,  2175,  2176,  2177,  2178,  2179,  2180,  2181,  2182,  2183,  2184,  2185,  2186,  2187
  2188,  2189,  2190,  2191,  2192,  2193,  2194,  2195,  2196,  2197,  2198,  2199,  2200,  2201,  2202,  2203
  2204,  2205,  2206,  2207,  2208,  2209,  2210,  2211,  2212,  2213,  2214,  2215,  2216,  2217,  2218,  2219
  2220,  2221,  2222,  2223,  2224,  2225,  2226,  2227,  2228,  2229,  2230,  2231,  2232,  2233,  2234,  2235
  2236,  2237,  2238,  2239,  2240,  2241,  2242,  2243,  2244,  2245,  2246,  2247,  2248,  2249,  2250,  2251
  2252,  2253,  2254,  2255,  2256,  2257,  2258,  2259,  2260,  2261,  2262,  2263,  2264,  2265,  2266,  2267
  2268,  2269,  2270,  2271,  2272,  2273,  2274,  2275,  2276,  2277,  2278,  2279,  2280,  2281,  2289,  2297
  2305,  2313,  2321,  2329,  2337,  2345,  2353,  2361,  2369,  2377,  2385,  2393,  2401,  2409,  2417,  2425
  2433,  2441,  2449,  2457,  2465,  2473,  2481,  2489,  2497,  2505,  2513,  2521,  2529,  2537,  2545,  2553
** ... 70 like lines cut
*Nset, nset=_PICKEDSET13, internal, instance=H_50-1
 1,
*Nset, nset=_PICKEDSET17, internal, instance=H_50-1
 1,
*Nset, nset=_PickedSet14, internal, instance=H_50-1
 1,
** Constraint: RigidBody-1
*Rigid Body, ref node=_PickedSet14, analytical surface=H_50-1.H_50-1-H_50-1-OUTSIDE
** Constraint: RigidBody-2
*Rigid Body, ref node=TABLE-1.TABLE, analytical surface=TABLE-1.TABLE-1-TABLE-1-TABLE-1-TABLE-1-TABLETOP
*End Assembly
*Amplitude, name=EQUALLY_SPACED, time=TOTAL TIME, definition=EQUALLY SPACED, fixed interval=250.
             0.,              1.
*Amplitude, name=SMOOTH_STEP, time=TOTAL TIME, definition=SMOOTH STEP
             0.,              0.,            250.,              1.
** 
** MATERIALS
** 
**     Initial plastic behavior is for copper, to be determined
** 
** 
*Material, name=BATTERY
*Density
 5.83e-09,
*Elastic
4200., 0.1
*Plastic
100.,  0.
120., 0.1
200., 0.2
250., 0.3
270., 0.4
290., 0.5
300., 0.6
** 
** INTERACTION PROPERTIES
** 
*Surface Interaction, name=INTPROP-1
*Friction
 0.1,
*Surface Behavior, pressure-overclosure=HARD
** 
** BOUNDARY CONDITIONS
** 
** Name: Disp-BC-1 Type: Symmetry/Antisymmetry/Encastre
*Boundary
TABLE-1.TABLE, ENCASTRE
** Name: Disp-BC-2 Type: Symmetry/Antisymmetry/Encastre
*Boundary
QUARTER-BATTERY-1.XZ_CUT, YSYMM
** Name: Disp-BC-3 Type: Symmetry/Antisymmetry/Encastre
*Boundary
QUARTER-BATTERY-1.ZY_CUT, XSYMM
** ----------------------------------------------------------------
** 
** STEP: Step-1
** 
*Step, name=Step-1, nlgeom=YES
Indentation Test
*Dynamic, Explicit
, 250.
*Bulk Viscosity
0.06, 1.2
** Mass Scaling: Semi-Automatic
**               Whole Model
*Fixed Mass Scaling, dt=0.05, type=below min
** 
** BOUNDARY CONDITIONS
** 
** Name: Disp-BC-4 Type: Displacement/Rotation
*Boundary, amplitude=EQUALLY_SPACED
H_50-1.H_50, 1, 1
** Name: Disp-BC-5 Type: Displacement/Rotation
*Boundary, amplitude=EQUALLY_SPACED
H_50-1.H_50, 2, 2
** Name: Disp-BC-6 Type: Displacement/Rotation
*Boundary, amplitude=EQUALLY_SPACED
H_50-1.H_50, 3, 3, -2.11
** Name: Disp-BC-7 Type: Displacement/Rotation
*Boundary, amplitude=EQUALLY_SPACED
H_50-1.H_50, 4, 4
** Name: Disp-BC-8 Type: Displacement/Rotation
*Boundary, amplitude=EQUALLY_SPACED
H_50-1.H_50, 5, 5
** Name: Disp-BC-9 Type: Displacement/Rotation
*Boundary, amplitude=EQUALLY_SPACED
H_50-1.H_50, 6, 6
** 
** INTERACTIONS
** 
** Interaction: INT-1-1-1-1-1
*Contact Pair, interaction=INTPROP-1, mechanical constraint=KINEMATIC, cpset=INT-1-1-1-1-1
H_50-1.H_50-1-H_50-1-OUTSIDE, QUARTER-BATTERY-1.TOP
** Interaction: TABLECONTACT-1-1-1-1
*Contact Pair, interaction=INTPROP-1, mechanical constraint=KINEMATIC, cpset=TABLECONTACT-1-1-1-1
TABLE-1.TABLE-1-TABLE-1-TABLE-1-TABLE-1-TABLETOP, QUARTER-BATTERY-1.BOTTOM
** 
** OUTPUT REQUESTS
** 
*Restart, write, number interval=1, time marks=NO
** 
** FIELD OUTPUT: F-Output-1
** 
*Output, field, variable=PRESELECT
** 
** HISTORY OUTPUT: H-Output-3
** 
*Output, history, time interval=1.
*Node Output, nset=H_50-1.H_50
RF3, U3
** 
** HISTORY OUTPUT: H-Output-4
** 
*Output, history, variable=PRESELECT, time interval=1.
*End Step
